/*---------------------------------------------------------------------------*\
| =========                 |                                                 |
| \\      /  F ield         | OpenFOAM: The Open Source CFD Toolbox           |
|  \\    /   O peration     | Version:  2406                                  |
|   \\  /    A nd           | Website:  www.openfoam.com                      |
|    \\/     M anipulation  |                                                 |
\*---------------------------------------------------------------------------*/
Build  : _be01ca78-20240625 OPENFOAM=2406 version=2406
Arch   : "LSB;label=32;scalar=64"
Exec   : interIsoFoam -parallel
Date   : Jan 18 2025
Time   : 12:39:34
Host   : kamakiri
PID    : 37622
I/O    : uncollated
Case   : /mnt/c/work/001_CAE/openfoam/20250125_pump_interFoam/ana001_interFoam/run
nProcs : 4
Hosts  :
(
    (kamakiri 4)
)
Pstream initialized with:
    floatTransfer      : false
    maxCommsSize       : 0
    nProcsSimpleSum    : 0
    nonBlockingExchange: 0 (tuning: 0)
    exchange algorithm : 0
    commsType          : nonBlocking
    polling iterations : 0
trapFpe: Floating point exception trapping enabled (FOAM_SIGFPE).
fileModificationChecking : Monitoring run-time modified files using timeStampMaster (fileModificationSkew 5, maxFileModificationPolls 20)
allowSystemOperations : Allowing user-supplied system call operations

// * * * * * * * * * * * * * * * * * * * * * * * * * * * * * * * * * * * * * //
Create time

Create mesh for time = 0


PIMPLE: Operating solver in PISO mode

Reading field p_rgh

Reading field U

Reading/calculating face flux field phi

Reading transportProperties

Selecting incompressible transport model Newtonian
Selecting incompressible transport model Newtonian
Selecting turbulence model type laminar
Selecting laminar stress model Stokes

Reading g

Reading hRef
Calculating field g.h

No MRF models present

No finite volume options present
Selecting reconstructionScheme: plicRDF
GAMG:  Solving for pcorr, Initial residual = 0, Final residual = 0, No Iterations 1
time step continuity errors : sum local = 0, global = 0, cumulative = 0
Courant Number mean: 0 max: 0

Starting time loop

abort activated (stop after next data write)
    File: "/mnt/c/work/001_CAE/openfoam/20250125_pump_interFoam/ana001_interFoam/run/ABORT"
Courant Number mean: 0 max: 0
Interface Courant Number mean: 0 max: 0
deltaT = 0.000120481927711
Time = 0.000120481927711

PIMPLE: iteration 1
isoAdvection: After conservative bounding: min(alpha) = 0, max(alpha) = 1 + 0
Phase-1 volume fraction = 0.326775588438  Min(alpha.liquid) = 0  Max(alpha.liquid) = 1
smoothSolver:  Solving for Ux, Initial residual = 1, Final residual = 6.9548025858e-10, No Iterations 2
smoothSolver:  Solving for Uy, Initial residual = 1, Final residual = 9.23747954904e-10, No Iterations 2
smoothSolver:  Solving for Uz, Initial residual = 1, Final residual = 1.81924686957e-10, No Iterations 2
GAMG:  Solving for p_rgh, Initial residual = 1, Final residual = 0.00881971797086, No Iterations 2
time step continuity errors : sum local = 4.91780938699e-05, global = -4.52788075696e-08, cumulative = -4.52788075696e-08
GAMG:  Solving for p_rgh, Initial residual = 4.31647237708e-06, Final residual = 8.8001771868e-07, No Iterations 1
time step continuity errors : sum local = 2.72247584877e-05, global = 1.78510200778e-08, cumulative = -2.74277874919e-08
GAMG:  Solving for p_rgh, Initial residual = 1.17225080016e-06, Final residual = 3.77219145465e-07, No Iterations 1
time step continuity errors : sum local = 1.45111129457e-05, global = 9.08674896607e-08, cumulative = 6.34397021688e-08
ExecutionTime = 1.8 s  ClockTime = 3 s

fieldMinMax fieldMinMax write:
    min(mag(U)) = 0 in cell 22400 at location (0.54875 0.16 0.00808542) on processor 0
    max(mag(U)) = 16.0513208712 in cell 49084 at location (0.0420798082283 0.034371919139 0.151748037362) on processor 2
    min(alpha.liquid) = 0 in cell 0 at location (0.575158024124 0.118241585281 0.462763989059) on processor 0
    max(alpha.liquid) = 1 in cell 166 at location (0.55625 0.1594255 0.14625) on processor 0
    min(p_rgh) = -8416910.6531 in cell 86338 at location (0.00689105360312 0.00438616905355 0.599809508353) on processor 3
    max(p_rgh) = 1892122.51056 in cell 68447 at location (0.989745628051 0.023125 0.0658682281069) on processor 0

Courant Number mean: 0.00334083011728 max: 1.19073509549
Interface Courant Number mean: 0 max: 0
deltaT = 0.000145287030475
Time = 0.000265768958186

PIMPLE: iteration 1
isoAdvection: After conservative bounding: min(alpha) = -0.432773397393, max(alpha) = 1 + 0.0112774517115
Phase-1 volume fraction = 0.326770357008  Min(alpha.liquid) = 0  Max(alpha.liquid) = 1
smoothSolver:  Solving for Ux, Initial residual = 0.280062650608, Final residual = 3.11130027917e-07, No Iterations 2
smoothSolver:  Solving for Uy, Initial residual = 0.366917990305, Final residual = 7.69047535439e-09, No Iterations 3
smoothSolver:  Solving for Uz, Initial residual = 0.230707341255, Final residual = 2.25361870594e-07, No Iterations 2
GAMG:  Solving for p_rgh, Initial residual = 3.49073842836e-06, Final residual = 8.29528641544e-07, No Iterations 2
time step continuity errors : sum local = 4.98892552552e-05, global = 7.80834827717e-07, cumulative = 8.44274529886e-07
GAMG:  Solving for p_rgh, Initial residual = 8.52608868601e-06, Final residual = 6.70648841503e-07, No Iterations 2
time step continuity errors : sum local = 1.51025679479e-05, global = -4.22878887088e-08, cumulative = 8.01986641177e-07
GAMG:  Solving for p_rgh, Initial residual = 4.96122788955e-06, Final residual = 9.28231441332e-07, No Iterations 1
time step continuity errors : sum local = 8.25388623928e-06, global = -4.11402597103e-08, cumulative = 7.60846381467e-07
ExecutionTime = 2.71 s  ClockTime = 4 s

fieldMinMax fieldMinMax write:
    min(mag(U)) = 0 in cell 22400 at location (0.54875 0.16 0.00808542) on processor 0
    max(mag(U)) = 5.63121196272 in cell 17672 at location (-0.0771726730573 0.00787487383369 0.0998627339819) on processor 3
    min(alpha.liquid) = 0 in cell 0 at location (0.575158024124 0.118241585281 0.462763989059) on processor 0
    max(alpha.liquid) = 1 in cell 171 at location (0.55625 0.1538245 0.13875) on processor 0
    min(p_rgh) = -683887.437591 in cell 84439 at location (-0.0341224076872 0.0315233082365 0.599802086824) on processor 3
    max(p_rgh) = 40042.1317511 in cell 67326 at location (0.989746842952 0.119750264641 0.0843783050235) on processor 0

Courant Number mean: 0.00438367003777 max: 1.33024204755
Interface Courant Number mean: 2.25703616347e-06 max: 0.758220018264
deltaT = 0.000173825554318
Time = 0.000439594512504

PIMPLE: iteration 1
isoAdvection: After conservative bounding: min(alpha) = 0, max(alpha) = 1 + 0.0424115976162
Phase-1 volume fraction = 0.326770192323  Min(alpha.liquid) = 0  Max(alpha.liquid) = 1
smoothSolver:  Solving for Ux, Initial residual = 0.0260822299971, Final residual = 1.0132137453e-07, No Iterations 2
smoothSolver:  Solving for Uy, Initial residual = 0.0557691831146, Final residual = 5.6428737028e-07, No Iterations 2
smoothSolver:  Solving for Uz, Initial residual = 0.0340747478349, Final residual = 8.08539038214e-08, No Iterations 2
GAMG:  Solving for p_rgh, Initial residual = 1.07192718523e-05, Final residual = 8.15918039813e-07, No Iterations 3
time step continuity errors : sum local = 7.83275837361e-06, global = -1.25193224655e-07, cumulative = 6.35653156812e-07
GAMG:  Solving for p_rgh, Initial residual = 2.03852797041e-05, Final residual = 9.29833789112e-07, No Iterations 3
time step continuity errors : sum local = 1.36107580489e-06, global = -8.75299542674e-09, cumulative = 6.26900161386e-07
GAMG:  Solving for p_rgh, Initial residual = 2.18989169939e-06, Final residual = 2.87550224363e-07, No Iterations 1
time step continuity errors : sum local = 6.94474574155e-07, global = -2.93844809074e-09, cumulative = 6.23961713295e-07
ExecutionTime = 6.9 s  ClockTime = 8 s

fieldMinMax fieldMinMax write:
    min(mag(U)) = 0 in cell 22400 at location (0.54875 0.16 0.00808542) on processor 0
    max(mag(U)) = 4.54325033833 in cell 48657 at location (0.891463362418 -0.0784529488271 0.087426895562) on processor 0
    min(alpha.liquid) = 0 in cell 0 at location (0.575158024124 0.118241585281 0.462763989059) on processor 0
    max(alpha.liquid) = 1 in cell 166 at location (0.55625 0.1594255 0.14625) on processor 0
    min(p_rgh) = -14440.116158 in cell 44936 at location (0.889789969041 0.117929976978 0.0896164222684) on processor 0
    max(p_rgh) = 168423.97447 in cell 93088 at location (0.00988851571517 -0.0465263293156 0.599347578303) on processor 3

Courant Number mean: 0.00511934273794 max: 1.4260251798
Interface Courant Number mean: 2.19379184133e-05 max: 1.37030971889
deltaT = 0.000199175114323
Time = 0.000638769626827

PIMPLE: iteration 1
--> FOAM Warning : 
    From Foam::triFace Foam::tetIndices::faceTriIs(const Foam::polyMesh&, bool) const
    in file ./src/OpenFOAM/lnInclude/tetIndicesI.H at line 70
    No base point for face 140030, 4(95487 98511 97491 96491), produces a valid tet decomposition.
--> FOAM Warning : 
    From Foam::triFace Foam::tetIndices::faceTriIs(const Foam::polyMesh&, bool) const
    in file ./src/OpenFOAM/lnInclude/tetIndicesI.H at line 70
    No base point for face 140030, 4(95487 98511 97491 96491), produces a valid tet decomposition.
--> FOAM Warning : 
    From Foam::triFace Foam::tetIndices::faceTriIs(const Foam::polyMesh&, bool) const
    in file ./src/OpenFOAM/lnInclude/tetIndicesI.H at line 70
    No base point for face 140031, 4(75969 98511 95487 75968), produces a valid tet decomposition.
--> FOAM Warning : 
    From Foam::triFace Foam::tetIndices::faceTriIs(const Foam::polyMesh&, bool) const
    in file ./src/OpenFOAM/lnInclude/tetIndicesI.H at line 70
    No base point for face 140031, 4(75969 98511 95487 75968), produces a valid tet decomposition.
--> FOAM Warning : 
    From Foam::triFace Foam::tetIndices::faceTriIs(const Foam::polyMesh&, bool) const
    in file ./src/OpenFOAM/lnInclude/tetIndicesI.H at line 70
    No base point for face 140034, 4(95488 98512 97492 96492), produces a valid tet decomposition.
--> FOAM Warning : 
    From Foam::triFace Foam::tetIndices::faceTriIs(const Foam::polyMesh&, bool) const
    in file ./src/OpenFOAM/lnInclude/tetIndicesI.H at line 70
    No base point for face 140034, 4(95488 98512 97492 96492), produces a valid tet decomposition.
--> FOAM Warning : 
    From Foam::triFace Foam::tetIndices::faceTriIs(const Foam::polyMesh&, bool) const
    in file ./src/OpenFOAM/lnInclude/tetIndicesI.H at line 70
    No base point for face 140034, 4(95488 98512 97492 96492), produces a valid tet decomposition.
--> FOAM Warning : 
    From Foam::triFace Foam::tetIndices::faceTriIs(const Foam::polyMesh&, bool) const
    in file ./src/OpenFOAM/lnInclude/tetIndicesI.H at line 70
    No base point for face 140038, 4(95489 98513 97493 96493), produces a valid tet decomposition.
--> FOAM Warning : 
    From Foam::triFace Foam::tetIndices::faceTriIs(const Foam::polyMesh&, bool) const
    in file ./src/OpenFOAM/lnInclude/tetIndicesI.H at line 70
    No base point for face 140038, 4(95489 98513 97493 96493), produces a valid tet decomposition.
--> FOAM Warning : 
    From Foam::triFace Foam::tetIndices::faceTriIs(const Foam::polyMesh&, bool) const
    in file ./src/OpenFOAM/lnInclude/tetIndicesI.H at line 70
    No base point for face 140038, 4(95489 98513 97493 96493), produces a valid tet decomposition.
--> FOAM Warning : 
    From Foam::triFace Foam::tetIndices::faceTriIs(const Foam::polyMesh&, bool) const
    in file ./src/OpenFOAM/lnInclude/tetIndicesI.H at line 70
    No base point for face 140042, 4(95490 98514 97494 96494), produces a valid tet decomposition.
--> FOAM Warning : 
    From Foam::triFace Foam::tetIndices::faceTriIs(const Foam::polyMesh&, bool) const
    in file ./src/OpenFOAM/lnInclude/tetIndicesI.H at line 70
    No base point for face 140042, 4(95490 98514 97494 96494), produces a valid tet decomposition.
--> FOAM Warning : 
    From Foam::triFace Foam::tetIndices::faceTriIs(const Foam::polyMesh&, bool) const
    in file ./src/OpenFOAM/lnInclude/tetIndicesI.H at line 70
    No base point for face 147586, 4(91452 90440 92464 93464), produces a valid tet decomposition.
--> FOAM Warning : 
    From Foam::triFace Foam::tetIndices::faceTriIs(const Foam::polyMesh&, bool) const
    in file ./src/OpenFOAM/lnInclude/tetIndicesI.H at line 70
    No base point for face 147586, 4(91452 90440 92464 93464), produces a valid tet decomposition.
--> FOAM Warning : 
    From Foam::triFace Foam::tetIndices::faceTriIs(const Foam::polyMesh&, bool) const
    in file ./src/OpenFOAM/lnInclude/tetIndicesI.H at line 70
    No base point for face 147590, 4(91451 90439 92463 93463), produces a valid tet decomposition.
--> FOAM Warning : 
    From Foam::triFace Foam::tetIndices::faceTriIs(const Foam::polyMesh&, bool) const
    in file ./src/OpenFOAM/lnInclude/tetIndicesI.H at line 70
    No base point for face 147590, 4(91451 90439 92463 93463), produces a valid tet decomposition.
isoAdvection: After conservative bounding: min(alpha) = -1.69406589451e-21, max(alpha) = 1 + 0.0183485453068
Phase-1 volume fraction = 0.326770159787  Min(alpha.liquid) = 0  Max(alpha.liquid) = 1
smoothSolver:  Solving for Ux, Initial residual = 0.00719316512408, Final residual = 7.30609593194e-08, No Iterations 2
smoothSolver:  Solving for Uy, Initial residual = 0.0195339293031, Final residual = 4.83588091542e-07, No Iterations 2
smoothSolver:  Solving for Uz, Initial residual = 0.0097961378477, Final residual = 3.48580111117e-08, No Iterations 2
GAMG:  Solving for p_rgh, Initial residual = 2.25990772693e-05, Final residual = 6.88756819326e-07, No Iterations 3
time step continuity errors : sum local = 2.18257234671e-06, global = 4.23943862081e-08, cumulative = 6.66356099503e-07
GAMG:  Solving for p_rgh, Initial residual = 2.36168225599e-05, Final residual = 9.82895570823e-07, No Iterations 3
time step continuity errors : sum local = 3.77920227844e-07, global = 9.83798835381e-09, cumulative = 6.76194087857e-07
GAMG:  Solving for p_rgh, Initial residual = 1.05020453233e-05, Final residual = 8.28947190283e-07, No Iterations 2
time step continuity errors : sum local = 1.44137148824e-07, global = 5.91816225084e-09, cumulative = 6.82112250108e-07
ExecutionTime = 11.03 s  ClockTime = 13 s

fieldMinMax fieldMinMax write:
    min(mag(U)) = 0 in cell 22400 at location (0.54875 0.16 0.00808542) on processor 0
    max(mag(U)) = 4.60438963908 in cell 48657 at location (0.891463362418 -0.0784529488271 0.087426895562) on processor 0
    min(alpha.liquid) = 0 in cell 0 at location (0.575158024124 0.118241585281 0.462763989059) on processor 0
    max(alpha.liquid) = 1 in cell 3085 at location (0.73625 0.155431 0.14625) on processor 0
    min(p_rgh) = -9657.38947171 in cell 48648 at location (0.889791980274 -0.0796385084095 0.0871339202144) on processor 0
    max(p_rgh) = 13836.0184378 in cell 92876 at location (-0.0113372584009 -0.0445109278742 0.5997973355) on processor 3

Courant Number mean: 0.00585586512769 max: 1.69809839897
Interface Courant Number mean: 3.72287123144e-05 max: 1.21885735771
deltaT = 0.000234030759329
Time = 0.000872800386156

PIMPLE: iteration 1
--> FOAM Warning : 
    From Foam::triFace Foam::tetIndices::faceTriIs(const Foam::polyMesh&, bool) const
    in file ./src/OpenFOAM/lnInclude/tetIndicesI.H at line 70
    No base point for face 147586, 4(91452 90440 92464 93464), produces a valid tet decomposition.
--> FOAM Warning : 
    From Foam::triFace Foam::tetIndices::faceTriIs(const Foam::polyMesh&, bool) const
    in file ./src/OpenFOAM/lnInclude/tetIndicesI.H at line 70
    No base point for face 147586, 4(91452 90440 92464 93464), produces a valid tet decomposition.
--> FOAM Warning : 
    From Foam::triFace Foam::tetIndices::faceTriIs(const Foam::polyMesh&, bool) const
    in file ./src/OpenFOAM/lnInclude/tetIndicesI.H at line 70
    No base point for face 147590, 4(91451 90439 92463 93463), produces a valid tet decomposition.
--> FOAM Warning : 
    From Foam::triFace Foam::tetIndices::faceTriIs(const Foam::polyMesh&, bool) const
    in file ./src/OpenFOAM/lnInclude/tetIndicesI.H at line 70
    No base point for face 147590, 4(91451 90439 92463 93463), produces a valid tet decomposition.
isoAdvection: After conservative bounding: min(alpha) = -1.08420217249e-19, max(alpha) = 1 + 0.0242988912524
Phase-1 volume fraction = 0.326770176201  Min(alpha.liquid) = 0  Max(alpha.liquid) = 1
smoothSolver:  Solving for Ux, Initial residual = 0.00190332045032, Final residual = 7.25111140747e-08, No Iterations 2
smoothSolver:  Solving for Uy, Initial residual = 0.00669794593874, Final residual = 4.71131317979e-07, No Iterations 2
smoothSolver:  Solving for Uz, Initial residual = 0.00112574019255, Final residual = 2.84454591293e-08, No Iterations 2
GAMG:  Solving for p_rgh, Initial residual = 0.000431860982967, Final residual = 3.50402348502e-06, No Iterations 2
time step continuity errors : sum local = 7.52296170391e-07, global = 1.03195050113e-08, cumulative = 6.92431755119e-07
GAMG:  Solving for p_rgh, Initial residual = 2.53580955691e-05, Final residual = 8.65833328399e-07, No Iterations 4
time step continuity errors : sum local = 1.58062698883e-07, global = 1.85756311271e-09, cumulative = 6.94289318232e-07
GAMG:  Solving for p_rgh, Initial residual = 2.33735930182e-05, Final residual = 9.76848350624e-07, No Iterations 2
time step continuity errors : sum local = 7.75824276452e-08, global = 1.07779907002e-09, cumulative = 6.95367117302e-07
ExecutionTime = 14.64 s  ClockTime = 16 s

fieldMinMax fieldMinMax write:
    min(mag(U)) = 0 in cell 22400 at location (0.54875 0.16 0.00808542) on processor 0
    max(mag(U)) = 4.63357029645 in cell 48657 at location (0.891463362418 -0.0784529488271 0.087426895562) on processor 0
    min(alpha.liquid) = 0 in cell 0 at location (0.575158024124 0.118241585281 0.462763989059) on processor 0
    max(alpha.liquid) = 1 in cell 166 at location (0.55625 0.1594255 0.14625) on processor 0
    min(p_rgh) = -14593.8119087 in cell 86349 at location (-0.00438206587443 0.00438208504213 0.599809375472) on processor 3
    max(p_rgh) = 7148.89029576 in cell 92947 at location (-0.0111699949073 -0.0474956726829 0.599786310495) on processor 3

Courant Number mean: 0.00688568325917 max: 2.02223417221
Interface Courant Number mean: 4.85879754727e-05 max: 1.54546958635
deltaT = 0.000260777131824
Time = 0.00113357751798

PIMPLE: iteration 1
--> FOAM Warning : 
    From Foam::triFace Foam::tetIndices::faceTriIs(const Foam::polyMesh&, bool) const
    in file ./src/OpenFOAM/lnInclude/tetIndicesI.H at line 70
    No base point for face 140030, 4(95487 98511 97491 96491), produces a valid tet decomposition.
--> FOAM Warning : 
    From Foam::triFace Foam::tetIndices::faceTriIs(const Foam::polyMesh&, bool) const
    in file ./src/OpenFOAM/lnInclude/tetIndicesI.H at line 70
    No base point for face 140030, 4(95487 98511 97491 96491), produces a valid tet decomposition.
--> FOAM Warning : 
    From Foam::triFace Foam::tetIndices::faceTriIs(const Foam::polyMesh&, bool) const
    in file ./src/OpenFOAM/lnInclude/tetIndicesI.H at line 70
    No base point for face 140031, 4(75969 98511 95487 75968), produces a valid tet decomposition.
--> FOAM Warning : 
    From Foam::triFace Foam::tetIndices::faceTriIs(const Foam::polyMesh&, bool) const
    in file ./src/OpenFOAM/lnInclude/tetIndicesI.H at line 70
    No base point for face 140031, 4(75969 98511 95487 75968), produces a valid tet decomposition.
--> FOAM Warning : 
    From Foam::triFace Foam::tetIndices::faceTriIs(const Foam::polyMesh&, bool) const
    in file ./src/OpenFOAM/lnInclude/tetIndicesI.H at line 70
    No base point for face 140034, 4(95488 98512 97492 96492), produces a valid tet decomposition.
--> FOAM Warning : 
    From Foam::triFace Foam::tetIndices::faceTriIs(const Foam::polyMesh&, bool) const
    in file ./src/OpenFOAM/lnInclude/tetIndicesI.H at line 70
    No base point for face 140034, 4(95488 98512 97492 96492), produces a valid tet decomposition.
--> FOAM Warning : 
    From Foam::triFace Foam::tetIndices::faceTriIs(const Foam::polyMesh&, bool) const
    in file ./src/OpenFOAM/lnInclude/tetIndicesI.H at line 70
    No base point for face 140038, 4(95489 98513 97493 96493), produces a valid tet decomposition.
--> FOAM Warning : 
    From Foam::triFace Foam::tetIndices::faceTriIs(const Foam::polyMesh&, bool) const
    in file ./src/OpenFOAM/lnInclude/tetIndicesI.H at line 70
    No base point for face 140038, 4(95489 98513 97493 96493), produces a valid tet decomposition.
--> FOAM Warning : 
    From Foam::triFace Foam::tetIndices::faceTriIs(const Foam::polyMesh&, bool) const
    in file ./src/OpenFOAM/lnInclude/tetIndicesI.H at line 70
    No base point for face 140042, 4(95490 98514 97494 96494), produces a valid tet decomposition.
--> FOAM Warning : 
    From Foam::triFace Foam::tetIndices::faceTriIs(const Foam::polyMesh&, bool) const
    in file ./src/OpenFOAM/lnInclude/tetIndicesI.H at line 70
    No base point for face 140042, 4(95490 98514 97494 96494), produces a valid tet decomposition.
--> FOAM Warning : 
    From Foam::triFace Foam::tetIndices::faceTriIs(const Foam::polyMesh&, bool) const
    in file ./src/OpenFOAM/lnInclude/tetIndicesI.H at line 70
    No base point for face 147586, 4(91452 90440 92464 93464), produces a valid tet decomposition.
--> FOAM Warning : 
    From Foam::triFace Foam::tetIndices::faceTriIs(const Foam::polyMesh&, bool) const
    in file ./src/OpenFOAM/lnInclude/tetIndicesI.H at line 70
    No base point for face 147586, 4(91452 90440 92464 93464), produces a valid tet decomposition.
--> FOAM Warning : 
    From Foam::triFace Foam::tetIndices::faceTriIs(const Foam::polyMesh&, bool) const
    in file ./src/OpenFOAM/lnInclude/tetIndicesI.H at line 70
    No base point for face 147590, 4(91451 90439 92463 93463), produces a valid tet decomposition.
--> FOAM Warning : 
    From Foam::triFace Foam::tetIndices::faceTriIs(const Foam::polyMesh&, bool) const
    in file ./src/OpenFOAM/lnInclude/tetIndicesI.H at line 70
    No base point for face 147590, 4(91451 90439 92463 93463), produces a valid tet decomposition.
isoAdvection: After conservative bounding: min(alpha) = -2.71050543121e-20, max(alpha) = 1 + 0.0350796380295
Phase-1 volume fraction = 0.326770151969  Min(alpha.liquid) = 0  Max(alpha.liquid) = 1
smoothSolver:  Solving for Ux, Initial residual = 0.00187109091303, Final residual = 9.03077078057e-08, No Iterations 2
smoothSolver:  Solving for Uy, Initial residual = 0.00622827971382, Final residual = 5.87799943798e-07, No Iterations 2
smoothSolver:  Solving for Uz, Initial residual = 0.000813758919919, Final residual = 3.43216409871e-08, No Iterations 2
GAMG:  Solving for p_rgh, Initial residual = 0.00139580451161, Final residual = 5.89331794557e-06, No Iterations 2
time step continuity errors : sum local = 5.13865815177e-07, global = -6.03473904796e-09, cumulative = 6.89332378254e-07
GAMG:  Solving for p_rgh, Initial residual = 5.91067378375e-05, Final residual = 7.66035716826e-07, No Iterations 4
time step continuity errors : sum local = 6.37645041936e-08, global = -3.22325706082e-09, cumulative = 6.86109121193e-07
GAMG:  Solving for p_rgh, Initial residual = 2.02654549577e-05, Final residual = 6.40651463085e-07, No Iterations 2
time step continuity errors : sum local = 5.59375721948e-08, global = -2.55050530552e-09, cumulative = 6.83558615887e-07
ExecutionTime = 19.11 s  ClockTime = 21 s

fieldMinMax fieldMinMax write:
    min(mag(U)) = 0 in cell 22400 at location (0.54875 0.16 0.00808542) on processor 0
    max(mag(U)) = 4.63369174743 in cell 48657 at location (0.891463362418 -0.0784529488271 0.087426895562) on processor 0
    min(alpha.liquid) = 0 in cell 0 at location (0.575158024124 0.118241585281 0.462763989059) on processor 0
    max(alpha.liquid) = 1 in cell 166 at location (0.55625 0.1594255 0.14625) on processor 0
    min(p_rgh) = -14329.3326225 in cell 86349 at location (-0.00438206587443 0.00438208504213 0.599809375472) on processor 3
    max(p_rgh) = 4911.4688457 in cell 92947 at location (-0.0111599113962 -0.0475012443688 0.6) on processor 3

Courant Number mean: 0.00767853934437 max: 2.24096838241
Interface Courant Number mean: 5.94675632666e-05 max: 1.8756141942
deltaT = 0.000277075702563
Time = 0.00141065322054

PIMPLE: iteration 1
--> FOAM Warning : 
    From Foam::triFace Foam::tetIndices::faceTriIs(const Foam::polyMesh&, bool) const
    in file ./src/OpenFOAM/lnInclude/tetIndicesI.H at line 70
    No base point for face 140034, 4(95488 98512 97492 96492), produces a valid tet decomposition.
--> FOAM Warning : 
    From Foam::triFace Foam::tetIndices::faceTriIs(const Foam::polyMesh&, bool) const
    in file ./src/OpenFOAM/lnInclude/tetIndicesI.H at line 70
    No base point for face 140034, 4(95488 98512 97492 96492), produces a valid tet decomposition.
--> FOAM Warning : 
    From Foam::triFace Foam::tetIndices::faceTriIs(const Foam::polyMesh&, bool) const
    in file ./src/OpenFOAM/lnInclude/tetIndicesI.H at line 70
    No base point for face 140038, 4(95489 98513 97493 96493), produces a valid tet decomposition.
--> FOAM Warning : 
    From Foam::triFace Foam::tetIndices::faceTriIs(const Foam::polyMesh&, bool) const
    in file ./src/OpenFOAM/lnInclude/tetIndicesI.H at line 70
    No base point for face 140038, 4(95489 98513 97493 96493), produces a valid tet decomposition.
--> FOAM Warning : 
    From Foam::triFace Foam::tetIndices::faceTriIs(const Foam::polyMesh&, bool) const
    in file ./src/OpenFOAM/lnInclude/tetIndicesI.H at line 70
    No base point for face 147590, 4(91451 90439 92463 93463), produces a valid tet decomposition.
--> FOAM Warning : 
    From Foam::triFace Foam::tetIndices::faceTriIs(const Foam::polyMesh&, bool) const
    in file ./src/OpenFOAM/lnInclude/tetIndicesI.H at line 70
    No base point for face 147590, 4(91451 90439 92463 93463), produces a valid tet decomposition.
isoAdvection: After conservative bounding: min(alpha) = -4.33680868994e-19, max(alpha) = 1 + 0.0341996790685
Phase-1 volume fraction = 0.326770162963  Min(alpha.liquid) = 0  Max(alpha.liquid) = 1
smoothSolver:  Solving for Ux, Initial residual = 0.00167256321527, Final residual = 9.71674650109e-08, No Iterations 2
smoothSolver:  Solving for Uy, Initial residual = 0.00565010598151, Final residual = 6.35161007921e-07, No Iterations 2
smoothSolver:  Solving for Uz, Initial residual = 0.000740010590635, Final residual = 3.63556504587e-08, No Iterations 2
GAMG:  Solving for p_rgh, Initial residual = 0.00145196200784, Final residual = 5.86495728049e-06, No Iterations 2
time step continuity errors : sum local = 5.72622622877e-07, global = -9.29491768144e-09, cumulative = 6.74263698206e-07
GAMG:  Solving for p_rgh, Initial residual = 4.74162274103e-05, Final residual = 8.07101807089e-07, No Iterations 4
time step continuity errors : sum local = 7.89013367698e-08, global = -3.97985585735e-09, cumulative = 6.70283842349e-07
GAMG:  Solving for p_rgh, Initial residual = 1.43759734824e-05, Final residual = 6.30312665542e-07, No Iterations 2
time step continuity errors : sum local = 7.08168944699e-08, global = -3.36196406336e-09, cumulative = 6.66921878285e-07
ExecutionTime = 23.37 s  ClockTime = 25 s

fieldMinMax fieldMinMax write:
    min(mag(U)) = 0 in cell 22400 at location (0.54875 0.16 0.00808542) on processor 0
    max(mag(U)) = 4.60692712713 in cell 48657 at location (0.891463362418 -0.0784529488271 0.087426895562) on processor 0
    min(alpha.liquid) = 0 in cell 0 at location (0.575158024124 0.118241585281 0.462763989059) on processor 0
    max(alpha.liquid) = 1 in cell 166 at location (0.55625 0.1594255 0.14625) on processor 0
    min(p_rgh) = -11568.8954484 in cell 86349 at location (-0.00438206587443 0.00438208504213 0.599809375472) on processor 3
    max(p_rgh) = 2698.45663522 in cell 92927 at location (-0.0140964493793 -0.0463308204292 0.6) on processor 3

Courant Number mean: 0.00816173618504 max: 2.33953235144
Interface Courant Number mean: 6.53273890865e-05 max: 2.14704896394
deltaT = 0.000260283235741
Time = 0.00167093645628

PIMPLE: iteration 1
--> FOAM Warning : 
    From Foam::triFace Foam::tetIndices::faceTriIs(const Foam::polyMesh&, bool) const
    in file ./src/OpenFOAM/lnInclude/tetIndicesI.H at line 70
    No base point for face 140030, 4(95487 98511 97491 96491), produces a valid tet decomposition.
--> FOAM Warning : 
    From Foam::triFace Foam::tetIndices::faceTriIs(const Foam::polyMesh&, bool) const
    in file ./src/OpenFOAM/lnInclude/tetIndicesI.H at line 70
    No base point for face 140030, 4(95487 98511 97491 96491), produces a valid tet decomposition.
--> FOAM Warning : 
    From Foam::triFace Foam::tetIndices::faceTriIs(const Foam::polyMesh&, bool) const
    in file ./src/OpenFOAM/lnInclude/tetIndicesI.H at line 70
    No base point for face 140030, 4(95487 98511 97491 96491), produces a valid tet decomposition.
--> FOAM Warning : 
    From Foam::triFace Foam::tetIndices::faceTriIs(const Foam::polyMesh&, bool) const
    in file ./src/OpenFOAM/lnInclude/tetIndicesI.H at line 70
    No base point for face 140034, 4(95488 98512 97492 96492), produces a valid tet decomposition.
--> FOAM Warning : 
    From Foam::triFace Foam::tetIndices::faceTriIs(const Foam::polyMesh&, bool) const
    in file ./src/OpenFOAM/lnInclude/tetIndicesI.H at line 70
    No base point for face 140034, 4(95488 98512 97492 96492), produces a valid tet decomposition.
--> FOAM Warning : 
    From Foam::triFace Foam::tetIndices::faceTriIs(const Foam::polyMesh&, bool) const
    in file ./src/OpenFOAM/lnInclude/tetIndicesI.H at line 70
    No base point for face 140030, 4(95487 98511 97491 96491), produces a valid tet decomposition.
--> FOAM Warning : 
    From Foam::triFace Foam::tetIndices::faceTriIs(const Foam::polyMesh&, bool) const
    in file ./src/OpenFOAM/lnInclude/tetIndicesI.H at line 70
    No base point for face 140030, 4(95487 98511 97491 96491), produces a valid tet decomposition.
--> FOAM Warning : 
    From Foam::triFace Foam::tetIndices::faceTriIs(const Foam::polyMesh&, bool) const
    in file ./src/OpenFOAM/lnInclude/tetIndicesI.H at line 70
    No base point for face 140034, 4(95488 98512 97492 96492), produces a valid tet decomposition.
--> FOAM Warning : 
    From Foam::triFace Foam::tetIndices::faceTriIs(const Foam::polyMesh&, bool) const
    in file ./src/OpenFOAM/lnInclude/tetIndicesI.H at line 70
    No base point for face 140034, 4(95488 98512 97492 96492), produces a valid tet decomposition.
--> FOAM Warning : 
    From Foam::triFace Foam::tetIndices::faceTriIs(const Foam::polyMesh&, bool) const
    in file ./src/OpenFOAM/lnInclude/tetIndicesI.H at line 70
    No base point for face 140030, 4(95487 98511 97491 96491), produces a valid tet decomposition.
--> FOAM Warning : 
    From Foam::triFace Foam::tetIndices::faceTriIs(const Foam::polyMesh&, bool) const
    in file ./src/OpenFOAM/lnInclude/tetIndicesI.H at line 70
    No base point for face 140030, 4(95487 98511 97491 96491), produces a valid tet decomposition.
--> FOAM Warning : 
    From Foam::triFace Foam::tetIndices::faceTriIs(const Foam::polyMesh&, bool) const
    in file ./src/OpenFOAM/lnInclude/tetIndicesI.H at line 70
    No base point for face 140038, 4(95489 98513 97493 96493), produces a valid tet decomposition.
--> FOAM Warning : 
    From Foam::triFace Foam::tetIndices::faceTriIs(const Foam::polyMesh&, bool) const
    in file ./src/OpenFOAM/lnInclude/tetIndicesI.H at line 70
    No base point for face 140038, 4(95489 98513 97493 96493), produces a valid tet decomposition.
--> FOAM Warning : 
    From Foam::triFace Foam::tetIndices::faceTriIs(const Foam::polyMesh&, bool) const
    in file ./src/OpenFOAM/lnInclude/tetIndicesI.H at line 70
    No base point for face 140042, 4(95490 98514 97494 96494), produces a valid tet decomposition.
--> FOAM Warning : 
    From Foam::triFace Foam::tetIndices::faceTriIs(const Foam::polyMesh&, bool) const
    in file ./src/OpenFOAM/lnInclude/tetIndicesI.H at line 70
    No base point for face 140042, 4(95490 98514 97494 96494), produces a valid tet decomposition.
--> FOAM Warning : 
    From Foam::triFace Foam::tetIndices::faceTriIs(const Foam::polyMesh&, bool) const
    in file ./src/OpenFOAM/lnInclude/tetIndicesI.H at line 70
    No base point for face 147586, 4(91452 90440 92464 93464), produces a valid tet decomposition.
--> FOAM Warning : 
    From Foam::triFace Foam::tetIndices::faceTriIs(const Foam::polyMesh&, bool) const
    in file ./src/OpenFOAM/lnInclude/tetIndicesI.H at line 70
    No base point for face 147586, 4(91452 90440 92464 93464), produces a valid tet decomposition.
--> FOAM Warning : 
    From Foam::triFace Foam::tetIndices::faceTriIs(const Foam::polyMesh&, bool) const
    in file ./src/OpenFOAM/lnInclude/tetIndicesI.H at line 70
    No base point for face 147590, 4(91451 90439 92463 93463), produces a valid tet decomposition.
--> FOAM Warning : 
    From Foam::triFace Foam::tetIndices::faceTriIs(const Foam::polyMesh&, bool) const
    in file ./src/OpenFOAM/lnInclude/tetIndicesI.H at line 70
    No base point for face 147590, 4(91451 90439 92463 93463), produces a valid tet decomposition.
isoAdvection: After conservative bounding: min(alpha) = -1.00796920723e-18, max(alpha) = 1 + 0.0148619349566
Phase-1 volume fraction = 0.326770193825  Min(alpha.liquid) = 0  Max(alpha.liquid) = 1
smoothSolver:  Solving for Ux, Initial residual = 0.00123232091973, Final residual = 5.89406104569e-08, No Iterations 2
smoothSolver:  Solving for Uy, Initial residual = 0.00420191372505, Final residual = 3.89714814129e-07, No Iterations 2
smoothSolver:  Solving for Uz, Initial residual = 0.000518467700467, Final residual = 2.26366517717e-08, No Iterations 2
GAMG:  Solving for p_rgh, Initial residual = 0.00116028226288, Final residual = 4.00937833797e-06, No Iterations 2
time step continuity errors : sum local = 4.00469459668e-07, global = -6.71962235439e-09, cumulative = 6.60202255931e-07
GAMG:  Solving for p_rgh, Initial residual = 2.92189785217e-05, Final residual = 6.30458029367e-07, No Iterations 3
time step continuity errors : sum local = 6.36663336842e-08, global = -5.60275287577e-09, cumulative = 6.54599503055e-07
GAMG:  Solving for p_rgh, Initial residual = 8.64844294124e-06, Final residual = 9.39894497996e-07, No Iterations 1
time step continuity errors : sum local = 9.88836857159e-08, global = -5.29412259127e-09, cumulative = 6.49305380464e-07
ExecutionTime = 27.08 s  ClockTime = 29 s

fieldMinMax fieldMinMax write:
    min(mag(U)) = 0 in cell 22400 at location (0.54875 0.16 0.00808542) on processor 0
    max(mag(U)) = 4.57391823829 in cell 48657 at location (0.891463362418 -0.0784529488271 0.087426895562) on processor 0
    min(alpha.liquid) = 0 in cell 0 at location (0.575158024124 0.118241585281 0.462763989059) on processor 0
    max(alpha.liquid) = 1 in cell 168 at location (0.55625 0.156891 0.14625) on processor 0
    min(p_rgh) = -9092.8545737 in cell 86349 at location (-0.00438206587443 0.00438208504213 0.599809375472) on processor 3
    max(p_rgh) = 2455.99701735 in cell 46086 at location (0.891398013621 0.119035691904 0.0432203947699) on processor 0

Courant Number mean: 0.00766815002295 max: 2.13739021582
Interface Courant Number mean: 6.01656706125e-05 max: 2.0398415817
deltaT = 0.000252395864961
Time = 0.00192333232125

PIMPLE: iteration 1
--> FOAM Warning : 
    From Foam::triFace Foam::tetIndices::faceTriIs(const Foam::polyMesh&, bool) const
    in file ./src/OpenFOAM/lnInclude/tetIndicesI.H at line 70
    No base point for face 147586, 4(91452 90440 92464 93464), produces a valid tet decomposition.
--> FOAM Warning : 
    From Foam::triFace Foam::tetIndices::faceTriIs(const Foam::polyMesh&, bool) const
    in file ./src/OpenFOAM/lnInclude/tetIndicesI.H at line 70
    No base point for face 147586, 4(91452 90440 92464 93464), produces a valid tet decomposition.
isoAdvection: After conservative bounding: min(alpha) = -5.42101086243e-20, max(alpha) = 1 + 0.0138808982937
Phase-1 volume fraction = 0.326770179106  Min(alpha.liquid) = 0  Max(alpha.liquid) = 1
smoothSolver:  Solving for Ux, Initial residual = 0.00101109335908, Final residual = 3.76923942819e-08, No Iterations 2
smoothSolver:  Solving for Uy, Initial residual = 0.00322466166306, Final residual = 2.45439407614e-07, No Iterations 2
smoothSolver:  Solving for Uz, Initial residual = 0.00040590506408, Final residual = 1.5268190488e-08, No Iterations 2
GAMG:  Solving for p_rgh, Initial residual = 0.00105284271781, Final residual = 3.57069233063e-06, No Iterations 2
time step continuity errors : sum local = 3.54607145156e-07, global = -9.05291351635e-09, cumulative = 6.40252466947e-07
GAMG:  Solving for p_rgh, Initial residual = 2.18540329456e-05, Final residual = 9.89008041804e-07, No Iterations 2
time step continuity errors : sum local = 9.97745415296e-08, global = -8.16805773212e-09, cumulative = 6.32084409215e-07
GAMG:  Solving for p_rgh, Initial residual = 5.89451504322e-06, Final residual = 8.88238888963e-07, No Iterations 1
time step continuity errors : sum local = 9.10132281179e-08, global = -7.68601125213e-09, cumulative = 6.24398397963e-07
ExecutionTime = 30.45 s  ClockTime = 32 s

fieldMinMax fieldMinMax write:
    min(mag(U)) = 0 in cell 22400 at location (0.54875 0.16 0.00808542) on processor 0
    max(mag(U)) = 4.52551787436 in cell 48657 at location (0.891463362418 -0.0784529488271 0.087426895562) on processor 0
    min(alpha.liquid) = 0 in cell 0 at location (0.575158024124 0.118241585281 0.462763989059) on processor 0
    max(alpha.liquid) = 1 in cell 166 at location (0.55625 0.1594255 0.14625) on processor 0
    min(p_rgh) = -8089.49803574 in cell 48648 at location (0.889791980274 -0.0796385084095 0.0871339202144) on processor 0
    max(p_rgh) = 2390.58625895 in cell 46086 at location (0.891398013621 0.119035691904 0.0432203947699) on processor 0

Courant Number mean: 0.00743575190775 max: 2.02820599142
Interface Courant Number mean: 5.81057337029e-05 max: 1.94793760132
deltaT = 0.000260537667057
Time = 0.0021838699883

PIMPLE: iteration 1
--> FOAM Warning : 
    From Foam::triFace Foam::tetIndices::faceTriIs(const Foam::polyMesh&, bool) const
    in file ./src/OpenFOAM/lnInclude/tetIndicesI.H at line 70
    No base point for face 140042, 4(95490 98514 97494 96494), produces a valid tet decomposition.
--> FOAM Warning : 
    From Foam::triFace Foam::tetIndices::faceTriIs(const Foam::polyMesh&, bool) const
    in file ./src/OpenFOAM/lnInclude/tetIndicesI.H at line 70
    No base point for face 140042, 4(95490 98514 97494 96494), produces a valid tet decomposition.
--> FOAM Warning : 
    From Foam::triFace Foam::tetIndices::faceTriIs(const Foam::polyMesh&, bool) const
    in file ./src/OpenFOAM/lnInclude/tetIndicesI.H at line 70
    No base point for face 147586, 4(91452 90440 92464 93464), produces a valid tet decomposition.
--> FOAM Warning : 
    From Foam::triFace Foam::tetIndices::faceTriIs(const Foam::polyMesh&, bool) const
    in file ./src/OpenFOAM/lnInclude/tetIndicesI.H at line 70
    No base point for face 147586, 4(91452 90440 92464 93464), produces a valid tet decomposition.
--> FOAM Warning : 
    From Foam::triFace Foam::tetIndices::faceTriIs(const Foam::polyMesh&, bool) const
    in file ./src/OpenFOAM/lnInclude/tetIndicesI.H at line 70
    No base point for face 147586, 4(91452 90440 92464 93464), produces a valid tet decomposition.
isoAdvection: After conservative bounding: min(alpha) = -4.5591548386e-19, max(alpha) = 1 + 0.0134526771426
Phase-1 volume fraction = 0.326770164428  Min(alpha.liquid) = 0  Max(alpha.liquid) = 1
smoothSolver:  Solving for Ux, Initial residual = 0.000909282898316, Final residual = 3.04923323106e-08, No Iterations 2
smoothSolver:  Solving for Uy, Initial residual = 0.00271334131441, Final residual = 1.95029634651e-07, No Iterations 2
smoothSolver:  Solving for Uz, Initial residual = 0.000356371405802, Final residual = 1.33633769873e-08, No Iterations 2
GAMG:  Solving for p_rgh, Initial residual = 0.00104571559393, Final residual = 3.58491865664e-06, No Iterations 2
time step continuity errors : sum local = 3.92477653301e-07, global = -1.14093775646e-08, cumulative = 6.12989020399e-07
GAMG:  Solving for p_rgh, Initial residual = 1.9252447464e-05, Final residual = 9.90077594105e-07, No Iterations 2
time step continuity errors : sum local = 1.10162473241e-07, global = -9.76836006436e-09, cumulative = 6.03220660334e-07
GAMG:  Solving for p_rgh, Initial residual = 4.8169653624e-06, Final residual = 8.19712693289e-07, No Iterations 1
time step continuity errors : sum local = 9.2323311067e-08, global = -9.02267245199e-09, cumulative = 5.94197987882e-07
ExecutionTime = 33.61 s  ClockTime = 35 s

fieldMinMax fieldMinMax write:
    min(mag(U)) = 0 in cell 22400 at location (0.54875 0.16 0.00808542) on processor 0
    max(mag(U)) = 4.70891196439 in cell 75857 at location (-0.0134840613459 0.052336654183 0.151845284443) on processor 2
    min(alpha.liquid) = 0 in cell 0 at location (0.575158024124 0.118241585281 0.462763989059) on processor 0
    max(alpha.liquid) = 1 in cell 166 at location (0.55625 0.1594255 0.14625) on processor 0
    min(p_rgh) = -7632.00600753 in cell 44945 at location (0.889788405863 0.113782309773 0.0910376993913) on processor 0
    max(p_rgh) = 2261.30827005 in cell 46086 at location (0.891398013621 0.119035691904 0.0432203947699) on processor 0

Courant Number mean: 0.00767530145755 max: 2.09108057704
Interface Courant Number mean: 6.06490724504e-05 max: 2.0138410572
deltaT = 0.000260537667057
Time = 0.00244440765536

PIMPLE: iteration 1
--> FOAM Warning : 
    From Foam::triFace Foam::tetIndices::faceTriIs(const Foam::polyMesh&, bool) const
    in file ./src/OpenFOAM/lnInclude/tetIndicesI.H at line 70
    No base point for face 140042, 4(95490 98514 97494 96494), produces a valid tet decomposition.
--> FOAM Warning : 
    From Foam::triFace Foam::tetIndices::faceTriIs(const Foam::polyMesh&, bool) const
    in file ./src/OpenFOAM/lnInclude/tetIndicesI.H at line 70
    No base point for face 140042, 4(95490 98514 97494 96494), produces a valid tet decomposition.
isoAdvection: After conservative bounding: min(alpha) = -2.16840434497e-19, max(alpha) = 1 + 0.0265422179672
Phase-1 volume fraction = 0.326770151563  Min(alpha.liquid) = 0  Max(alpha.liquid) = 1
smoothSolver:  Solving for Ux, Initial residual = 0.00084500343815, Final residual = 2.75307018501e-08, No Iterations 2
smoothSolver:  Solving for Uy, Initial residual = 0.00247305386691, Final residual = 1.71025160332e-07, No Iterations 2
smoothSolver:  Solving for Uz, Initial residual = 0.000331423653822, Final residual = 9.9160016343e-07, No Iterations 1
GAMG:  Solving for p_rgh, Initial residual = 0.0010040319999, Final residual = 3.0630352715e-06, No Iterations 2
time step continuity errors : sum local = 3.45808579049e-07, global = -1.04940433447e-08, cumulative = 5.83703944538e-07
GAMG:  Solving for p_rgh, Initial residual = 1.73982598295e-05, Final residual = 8.85516685658e-07, No Iterations 2
time step continuity errors : sum local = 1.01215596563e-07, global = -8.66885915646e-09, cumulative = 5.75035085381e-07
GAMG:  Solving for p_rgh, Initial residual = 4.19680053134e-06, Final residual = 6.84856514068e-07, No Iterations 1
time step continuity errors : sum local = 7.86536288763e-08, global = -7.90905979933e-09, cumulative = 5.67126025582e-07
ExecutionTime = 36.71 s  ClockTime = 38 s

fieldMinMax fieldMinMax write:
    min(mag(U)) = 0 in cell 22400 at location (0.54875 0.16 0.00808542) on processor 0
    max(mag(U)) = 5.61721741124 in cell 75857 at location (-0.0134840613459 0.052336654183 0.151845284443) on processor 2
    min(alpha.liquid) = 0 in cell 0 at location (0.575158024124 0.118241585281 0.462763989059) on processor 0
    max(alpha.liquid) = 1 in cell 166 at location (0.55625 0.1594255 0.14625) on processor 0
    min(p_rgh) = -7437.34713739 in cell 44945 at location (0.889788405863 0.113782309773 0.0910376993913) on processor 0
    max(p_rgh) = 2191.92231241 in cell 46086 at location (0.891398013621 0.119035691904 0.0432203947699) on processor 0

Courant Number mean: 0.00767485508705 max: 2.07108934068
Interface Courant Number mean: 6.16921427706e-05 max: 1.90157851747
deltaT = 0.000269842583737
Time = 0.0027142502391

PIMPLE: iteration 1
--> FOAM Warning : 
    From Foam::triFace Foam::tetIndices::faceTriIs(const Foam::polyMesh&, bool) const
    in file ./src/OpenFOAM/lnInclude/tetIndicesI.H at line 70
    No base point for face 140030, 4(95487 98511 97491 96491), produces a valid tet decomposition.
--> FOAM Warning : 
    From Foam::triFace Foam::tetIndices::faceTriIs(const Foam::polyMesh&, bool) const
    in file ./src/OpenFOAM/lnInclude/tetIndicesI.H at line 70
    No base point for face 140030, 4(95487 98511 97491 96491), produces a valid tet decomposition.
--> FOAM Warning : 
    From Foam::triFace Foam::tetIndices::faceTriIs(const Foam::polyMesh&, bool) const
    in file ./src/OpenFOAM/lnInclude/tetIndicesI.H at line 70
    No base point for face 140031, 4(75969 98511 95487 75968), produces a valid tet decomposition.
--> FOAM Warning : 
    From Foam::triFace Foam::tetIndices::faceTriIs(const Foam::polyMesh&, bool) const
    in file ./src/OpenFOAM/lnInclude/tetIndicesI.H at line 70
    No base point for face 140031, 4(75969 98511 95487 75968), produces a valid tet decomposition.
--> FOAM Warning : 
    From Foam::triFace Foam::tetIndices::faceTriIs(const Foam::polyMesh&, bool) const
    in file ./src/OpenFOAM/lnInclude/tetIndicesI.H at line 70
    No base point for face 140034, 4(95488 98512 97492 96492), produces a valid tet decomposition.
--> FOAM Warning : 
    From Foam::triFace Foam::tetIndices::faceTriIs(const Foam::polyMesh&, bool) const
    in file ./src/OpenFOAM/lnInclude/tetIndicesI.H at line 70
    No base point for face 140034, 4(95488 98512 97492 96492), produces a valid tet decomposition.
--> FOAM Warning : 
    From Foam::triFace Foam::tetIndices::faceTriIs(const Foam::polyMesh&, bool) const
    in file ./src/OpenFOAM/lnInclude/tetIndicesI.H at line 70
    No base point for face 140038, 4(95489 98513 97493 96493), produces a valid tet decomposition.
--> FOAM Warning : 
    From Foam::triFace Foam::tetIndices::faceTriIs(const Foam::polyMesh&, bool) const
    in file ./src/OpenFOAM/lnInclude/tetIndicesI.H at line 70
    No base point for face 140038, 4(95489 98513 97493 96493), produces a valid tet decomposition.
--> FOAM Warning : 
    From Foam::triFace Foam::tetIndices::faceTriIs(const Foam::polyMesh&, bool) const
    in file ./src/OpenFOAM/lnInclude/tetIndicesI.H at line 70
    No base point for face 140031, 4(75969 98511 95487 75968), produces a valid tet decomposition.
--> FOAM Warning : 
    From Foam::triFace Foam::tetIndices::faceTriIs(const Foam::polyMesh&, bool) const
    in file ./src/OpenFOAM/lnInclude/tetIndicesI.H at line 70
    No base point for face 140031, 4(75969 98511 95487 75968), produces a valid tet decomposition.
isoAdvection: After conservative bounding: min(alpha) = -2.13452302708e-19, max(alpha) = 1 + 0.0347196704343
Phase-1 volume fraction = 0.326770146421  Min(alpha.liquid) = 0  Max(alpha.liquid) = 1
smoothSolver:  Solving for Ux, Initial residual = 0.000832403406704, Final residual = 2.93960673554e-08, No Iterations 2
smoothSolver:  Solving for Uy, Initial residual = 0.002461164445, Final residual = 1.82211818091e-07, No Iterations 2
smoothSolver:  Solving for Uz, Initial residual = 0.000330560049321, Final residual = 1.2723387919e-08, No Iterations 2
GAMG:  Solving for p_rgh, Initial residual = 0.00101897664608, Final residual = 3.00342113687e-06, No Iterations 2
time step continuity errors : sum local = 3.6961880256e-07, global = -6.99300784276e-09, cumulative = 5.60133017739e-07
GAMG:  Solving for p_rgh, Initial residual = 1.74021085404e-05, Final residual = 8.33651526449e-07, No Iterations 2
time step continuity errors : sum local = 1.03358411298e-07, global = -5.65605190409e-09, cumulative = 5.54476965835e-07
GAMG:  Solving for p_rgh, Initial residual = 4.32837200256e-06, Final residual = 6.2654346898e-07, No Iterations 1
time step continuity errors : sum local = 7.75677891167e-08, global = -5.13751281326e-09, cumulative = 5.49339453022e-07
ExecutionTime = 39.88 s  ClockTime = 41 s

fieldMinMax fieldMinMax write:
    min(mag(U)) = 0 in cell 22400 at location (0.54875 0.16 0.00808542) on processor 0
    max(mag(U)) = 6.16519620346 in cell 75857 at location (-0.0134840613459 0.052336654183 0.151845284443) on processor 2
    min(alpha.liquid) = 0 in cell 0 at location (0.575158024124 0.118241585281 0.462763989059) on processor 0
    max(alpha.liquid) = 1 in cell 166 at location (0.55625 0.1594255 0.14625) on processor 0
    min(p_rgh) = -7103.22345723 in cell 44945 at location (0.889788405863 0.113782309773 0.0910376993913) on processor 0
    max(p_rgh) = 2119.23565103 in cell 46086 at location (0.891398013621 0.119035691904 0.0432203947699) on processor 0

Courant Number mean: 0.00794846901956 max: 2.12221325464
Interface Courant Number mean: 6.44579076986e-05 max: 1.95109851772
deltaT = 0.00028022114465
Time = 0.00299447138375

PIMPLE: iteration 1
--> FOAM Warning : 
    From Foam::triFace Foam::tetIndices::faceTriIs(const Foam::polyMesh&, bool) const
    in file ./src/OpenFOAM/lnInclude/tetIndicesI.H at line 70
    No base point for face 140034, 4(95488 98512 97492 96492), produces a valid tet decomposition.
--> FOAM Warning : 
    From Foam::triFace Foam::tetIndices::faceTriIs(const Foam::polyMesh&, bool) const
    in file ./src/OpenFOAM/lnInclude/tetIndicesI.H at line 70
    No base point for face 140034, 4(95488 98512 97492 96492), produces a valid tet decomposition.
--> FOAM Warning : 
    From Foam::triFace Foam::tetIndices::faceTriIs(const Foam::polyMesh&, bool) const
    in file ./src/OpenFOAM/lnInclude/tetIndicesI.H at line 70
    No base point for face 140042, 4(95490 98514 97494 96494), produces a valid tet decomposition.
--> FOAM Warning : 
    From Foam::triFace Foam::tetIndices::faceTriIs(const Foam::polyMesh&, bool) const
    in file ./src/OpenFOAM/lnInclude/tetIndicesI.H at line 70
    No base point for face 140042, 4(95490 98514 97494 96494), produces a valid tet decomposition.
isoAdvection: After conservative bounding: min(alpha) = -2.16840434497e-19, max(alpha) = 1 + 0.0207633835484
Phase-1 volume fraction = 0.326770144841  Min(alpha.liquid) = 0  Max(alpha.liquid) = 1
smoothSolver:  Solving for Ux, Initial residual = 0.000824374277709, Final residual = 3.09884887693e-08, No Iterations 2
smoothSolver:  Solving for Uy, Initial residual = 0.00245223610341, Final residual = 1.92367279954e-07, No Iterations 2
smoothSolver:  Solving for Uz, Initial residual = 0.000327089799962, Final residual = 1.33498416818e-08, No Iterations 2
GAMG:  Solving for p_rgh, Initial residual = 0.00105110577357, Final residual = 3.06205786468e-06, No Iterations 2
time step continuity errors : sum local = 4.0754011361e-07, global = -2.8455138583e-09, cumulative = 5.46493939163e-07
GAMG:  Solving for p_rgh, Initial residual = 1.76719588732e-05, Final residual = 8.07396713494e-07, No Iterations 2
time step continuity errors : sum local = 1.07924926779e-07, global = -2.03665398101e-09, cumulative = 5.44457285182e-07
GAMG:  Solving for p_rgh, Initial residual = 4.32851272183e-06, Final residual = 5.94265297574e-07, No Iterations 1
time step continuity errors : sum local = 7.90299921085e-08, global = -1.71040764073e-09, cumulative = 5.42746877542e-07
ExecutionTime = 43.05 s  ClockTime = 45 s

fieldMinMax fieldMinMax write:
    min(mag(U)) = 0 in cell 22400 at location (0.54875 0.16 0.00808542) on processor 0
    max(mag(U)) = 6.05412287082 in cell 75857 at location (-0.0134840613459 0.052336654183 0.151845284443) on processor 2
    min(alpha.liquid) = 0 in cell 0 at location (0.575158024124 0.118241585281 0.462763989059) on processor 0
    max(alpha.liquid) = 1 in cell 166 at location (0.55625 0.1594255 0.14625) on processor 0
    min(p_rgh) = -6810.99838068 in cell 44945 at location (0.889788405863 0.113782309773 0.0910376993913) on processor 0
    max(p_rgh) = 2055.87059299 in cell 46086 at location (0.891398013621 0.119035691904 0.0432203947699) on processor 0

Courant Number mean: 0.00825360655128 max: 2.17599587684
Interface Courant Number mean: 6.766741946e-05 max: 1.9824366502
deltaT = 0.00028022114465
Time = 0.0032746925284

PIMPLE: iteration 1
--> FOAM Warning : 
    From Foam::triFace Foam::tetIndices::faceTriIs(const Foam::polyMesh&, bool) const
    in file ./src/OpenFOAM/lnInclude/tetIndicesI.H at line 70
    No base point for face 140034, 4(95488 98512 97492 96492), produces a valid tet decomposition.
--> FOAM Warning : 
    From Foam::triFace Foam::tetIndices::faceTriIs(const Foam::polyMesh&, bool) const
    in file ./src/OpenFOAM/lnInclude/tetIndicesI.H at line 70
    No base point for face 140034, 4(95488 98512 97492 96492), produces a valid tet decomposition.
--> FOAM Warning : 
    From Foam::triFace Foam::tetIndices::faceTriIs(const Foam::polyMesh&, bool) const
    in file ./src/OpenFOAM/lnInclude/tetIndicesI.H at line 70
    No base point for face 140038, 4(95489 98513 97493 96493), produces a valid tet decomposition.
--> FOAM Warning : 
    From Foam::triFace Foam::tetIndices::faceTriIs(const Foam::polyMesh&, bool) const
    in file ./src/OpenFOAM/lnInclude/tetIndicesI.H at line 70
    No base point for face 140038, 4(95489 98513 97493 96493), produces a valid tet decomposition.
--> FOAM Warning : 
    From Foam::triFace Foam::tetIndices::faceTriIs(const Foam::polyMesh&, bool) const
    in file ./src/OpenFOAM/lnInclude/tetIndicesI.H at line 70
    No base point for face 140042, 4(95490 98514 97494 96494), produces a valid tet decomposition.
--> FOAM Warning : 
    From Foam::triFace Foam::tetIndices::faceTriIs(const Foam::polyMesh&, bool) const
    in file ./src/OpenFOAM/lnInclude/tetIndicesI.H at line 70
    No base point for face 140042, 4(95490 98514 97494 96494), produces a valid tet decomposition.
--> FOAM Warning : 
    From Foam::triFace Foam::tetIndices::faceTriIs(const Foam::polyMesh&, bool) const
    in file ./src/OpenFOAM/lnInclude/tetIndicesI.H at line 70
    No base point for face 140038, 4(95489 98513 97493 96493), produces a valid tet decomposition.
--> FOAM Warning : 
    From Foam::triFace Foam::tetIndices::faceTriIs(const Foam::polyMesh&, bool) const
    in file ./src/OpenFOAM/lnInclude/tetIndicesI.H at line 70
    No base point for face 140038, 4(95489 98513 97493 96493), produces a valid tet decomposition.
--> FOAM Warning : 
    From Foam::triFace Foam::tetIndices::faceTriIs(const Foam::polyMesh&, bool) const
    in file ./src/OpenFOAM/lnInclude/tetIndicesI.H at line 70
    No base point for face 140042, 4(95490 98514 97494 96494), produces a valid tet decomposition.
--> FOAM Warning : 
    From Foam::triFace Foam::tetIndices::faceTriIs(const Foam::polyMesh&, bool) const
    in file ./src/OpenFOAM/lnInclude/tetIndicesI.H at line 70
    No base point for face 140042, 4(95490 98514 97494 96494), produces a valid tet decomposition.
--> FOAM Warning : 
    From Foam::triFace Foam::tetIndices::faceTriIs(const Foam::polyMesh&, bool) const
    in file ./src/OpenFOAM/lnInclude/tetIndicesI.H at line 70
    No base point for face 140038, 4(95489 98513 97493 96493), produces a valid tet decomposition.
--> FOAM Warning : 
    From Foam::triFace Foam::tetIndices::faceTriIs(const Foam::polyMesh&, bool) const
    in file ./src/OpenFOAM/lnInclude/tetIndicesI.H at line 70
    No base point for face 140038, 4(95489 98513 97493 96493), produces a valid tet decomposition.
--> FOAM Warning : 
    From Foam::triFace Foam::tetIndices::faceTriIs(const Foam::polyMesh&, bool) const
    in file ./src/OpenFOAM/lnInclude/tetIndicesI.H at line 70
    No base point for face 140042, 4(95490 98514 97494 96494), produces a valid tet decomposition.
--> FOAM Warning : 
    From Foam::triFace Foam::tetIndices::faceTriIs(const Foam::polyMesh&, bool) const
    in file ./src/OpenFOAM/lnInclude/tetIndicesI.H at line 70
    No base point for face 140042, 4(95490 98514 97494 96494), produces a valid tet decomposition.
--> FOAM Warning : 
    From Foam::triFace Foam::tetIndices::faceTriIs(const Foam::polyMesh&, bool) const
    in file ./src/OpenFOAM/lnInclude/tetIndicesI.H at line 70
    No base point for face 140042, 4(95490 98514 97494 96494), produces a valid tet decomposition.
--> FOAM Warning : 
    From Foam::triFace Foam::tetIndices::faceTriIs(const Foam::polyMesh&, bool) const
    in file ./src/OpenFOAM/lnInclude/tetIndicesI.H at line 70
    No base point for face 140042, 4(95490 98514 97494 96494), produces a valid tet decomposition.
--> FOAM Warning : 
    From Foam::triFace Foam::tetIndices::faceTriIs(const Foam::polyMesh&, bool) const
    in file ./src/OpenFOAM/lnInclude/tetIndicesI.H at line 70
    No base point for face 140042, 4(95490 98514 97494 96494), produces a valid tet decomposition.
--> FOAM Warning : 
    From Foam::triFace Foam::tetIndices::faceTriIs(const Foam::polyMesh&, bool) const
    in file ./src/OpenFOAM/lnInclude/tetIndicesI.H at line 70
    No base point for face 140042, 4(95490 98514 97494 96494), produces a valid tet decomposition.
--> FOAM Warning : Suppressing further warnings.
isoAdvection: After conservative bounding: min(alpha) = -4.87890977618e-19, max(alpha) = 1 + 0.0386381747044
Phase-1 volume fraction = 0.326770140676  Min(alpha.liquid) = 0  Max(alpha.liquid) = 1
smoothSolver:  Solving for Ux, Initial residual = 0.000789729769409, Final residual = 2.78197108551e-08, No Iterations 2
smoothSolver:  Solving for Uy, Initial residual = 0.00233551047815, Final residual = 1.72653580311e-07, No Iterations 2
smoothSolver:  Solving for Uz, Initial residual = 0.000312363515289, Final residual = 1.21308058547e-08, No Iterations 2
GAMG:  Solving for p_rgh, Initial residual = 0.00105089105368, Final residual = 3.00117737396e-06, No Iterations 2
time step continuity errors : sum local = 3.98022250668e-07, global = 4.00495052038e-10, cumulative = 5.43147372594e-07
GAMG:  Solving for p_rgh, Initial residual = 1.76280350492e-05, Final residual = 7.72584230882e-07, No Iterations 2
time step continuity errors : sum local = 1.02747761196e-07, global = 6.09873476531e-10, cumulative = 5.4375724607e-07
GAMG:  Solving for p_rgh, Initial residual = 4.3192912729e-06, Final residual = 5.58645877353e-07, No Iterations 1
time step continuity errors : sum local = 7.38078874098e-08, global = 7.58243460903e-10, cumulative = 5.44515489531e-07
ExecutionTime = 46.22 s  ClockTime = 48 s

fieldMinMax fieldMinMax write:
    min(mag(U)) = 0 in cell 22400 at location (0.54875 0.16 0.00808542) on processor 0
    max(mag(U)) = 5.15339526905 in cell 75857 at location (-0.0134840613459 0.052336654183 0.151845284443) on processor 2
    min(alpha.liquid) = 0 in cell 0 at location (0.575158024124 0.118241585281 0.462763989059) on processor 0
    max(alpha.liquid) = 1 in cell 166 at location (0.55625 0.1594255 0.14625) on processor 0
    min(p_rgh) = -6565.2587557 in cell 44945 at location (0.889788405863 0.113782309773 0.0910376993913) on processor 0
    max(p_rgh) = 2034.45209327 in cell 46086 at location (0.891398013621 0.119035691904 0.0432203947699) on processor 0

Courant Number mean: 0.00825308233683 max: 2.14473333241
Interface Courant Number mean: 6.81388767229e-05 max: 2.13098306765
deltaT = 0.000258665671985
Time = 0.00353335820038

PIMPLE: iteration 1
isoAdvection: After conservative bounding: min(alpha) = -2.16840434497e-19, max(alpha) = 1 + 0.0153896773934
Phase-1 volume fraction = 0.326770138625  Min(alpha.liquid) = 0  Max(alpha.liquid) = 1
smoothSolver:  Solving for Ux, Initial residual = 0.000706900770904, Final residual = 1.83687278498e-08, No Iterations 2
smoothSolver:  Solving for Uy, Initial residual = 0.00207872321097, Final residual = 1.144573997e-07, No Iterations 2
smoothSolver:  Solving for Uz, Initial residual = 0.000278379939001, Final residual = 8.31177269708e-07, No Iterations 1
GAMG:  Solving for p_rgh, Initial residual = 0.000971498912973, Final residual = 2.70312478729e-06, No Iterations 2
time step continuity errors : sum local = 3.04237712481e-07, global = 1.45384886386e-09, cumulative = 5.45969338395e-07
GAMG:  Solving for p_rgh, Initial residual = 1.60287470625e-05, Final residual = 6.83667090188e-07, No Iterations 2
time step continuity errors : sum local = 7.71736779734e-08, global = 1.34188104265e-09, cumulative = 5.47311219438e-07
GAMG:  Solving for p_rgh, Initial residual = 4.06112656137e-06, Final residual = 4.88491197605e-07, No Iterations 1
time step continuity errors : sum local = 5.47767262901e-08, global = 1.38551507407e-09, cumulative = 5.48696734512e-07
ExecutionTime = 49.54 s  ClockTime = 51 s

fieldMinMax fieldMinMax write:
    min(mag(U)) = 0 in cell 22400 at location (0.54875 0.16 0.00808542) on processor 0
    max(mag(U)) = 4.4794082108 in cell 75610 at location (-0.0237269895563 0.0476065795643 0.155211470353) on processor 2
    min(alpha.liquid) = 0 in cell 0 at location (0.575158024124 0.118241585281 0.462763989059) on processor 0
    max(alpha.liquid) = 1 in cell 166 at location (0.55625 0.1594255 0.14625) on processor 0
    min(p_rgh) = -6358.70849463 in cell 44945 at location (0.889788405863 0.113782309773 0.0910376993913) on processor 0
    max(p_rgh) = 2076.3096745 in cell 46086 at location (0.891398013621 0.119035691904 0.0432203947699) on processor 0

Courant Number mean: 0.00761780354369 max: 1.95479696792
Interface Courant Number mean: 6.33311212683e-05 max: 1.91811819895
deltaT = 0.000269443408317
Time = 0.0038028016087

PIMPLE: iteration 1
isoAdvection: After conservative bounding: min(alpha) = -1.69406589451e-20, max(alpha) = 1 + 0.0118373045993
Phase-1 volume fraction = 0.326770133488  Min(alpha.liquid) = 0  Max(alpha.liquid) = 1
smoothSolver:  Solving for Ux, Initial residual = 0.000728185911001, Final residual = 1.95003807936e-08, No Iterations 2
smoothSolver:  Solving for Uy, Initial residual = 0.0021349295885, Final residual = 1.23083189628e-07, No Iterations 2
smoothSolver:  Solving for Uz, Initial residual = 0.000288426370766, Final residual = 9.17235234423e-07, No Iterations 1
GAMG:  Solving for p_rgh, Initial residual = 0.00102254031405, Final residual = 2.81952029144e-06, No Iterations 2
time step continuity errors : sum local = 3.41649401859e-07, global = 5.60868218598e-10, cumulative = 5.4925760273e-07
GAMG:  Solving for p_rgh, Initial residual = 1.72955132341e-05, Final residual = 6.96957181302e-07, No Iterations 2
time step continuity errors : sum local = 8.48177775788e-08, global = 5.4428964805e-10, cumulative = 5.49801892378e-07
GAMG:  Solving for p_rgh, Initial residual = 4.18624020001e-06, Final residual = 4.95861176768e-07, No Iterations 1
time step continuity errors : sum local = 6.0036251436e-08, global = 6.17010703363e-10, cumulative = 5.50418903082e-07
ExecutionTime = 52.97 s  ClockTime = 55 s

fieldMinMax fieldMinMax write:
    min(mag(U)) = 0 in cell 22400 at location (0.54875 0.16 0.00808542) on processor 0
    max(mag(U)) = 4.54406990053 in cell 75610 at location (-0.0237269895563 0.0476065795643 0.155211470353) on processor 2
    min(alpha.liquid) = 0 in cell 0 at location (0.575158024124 0.118241585281 0.462763989059) on processor 0
    max(alpha.liquid) = 1 in cell 166 at location (0.55625 0.1594255 0.14625) on processor 0
    min(p_rgh) = -6035.44110781 in cell 44945 at location (0.889788405863 0.113782309773 0.0910376993913) on processor 0
    max(p_rgh) = 2039.94044321 in cell 46086 at location (0.891398013621 0.119035691904 0.0432203947699) on processor 0

Courant Number mean: 0.00793496757001 max: 2.00747203703
Interface Courant Number mean: 6.60872964124e-05 max: 1.94225931965
deltaT = 0.000281690835968
Time = 0.00408449244467

PIMPLE: iteration 1
isoAdvection: After conservative bounding: min(alpha) = -4.33680868994e-19, max(alpha) = 1 + 0.0294831289373
Phase-1 volume fraction = 0.326770123166  Min(alpha.liquid) = 0  Max(alpha.liquid) = 1
smoothSolver:  Solving for Ux, Initial residual = 0.000745816859573, Final residual = 2.14390549191e-08, No Iterations 2
smoothSolver:  Solving for Uy, Initial residual = 0.00216214959355, Final residual = 1.33215563957e-07, No Iterations 2
smoothSolver:  Solving for Uz, Initial residual = 0.000293196671157, Final residual = 9.76795416957e-07, No Iterations 1
GAMG:  Solving for p_rgh, Initial residual = 0.00106417015018, Final residual = 2.95358105918e-06, No Iterations 2
time step continuity errors : sum local = 3.89426468873e-07, global = -1.57532656506e-09, cumulative = 5.48843576517e-07
GAMG:  Solving for p_rgh, Initial residual = 1.70678491343e-05, Final residual = 7.29296334358e-07, No Iterations 2
time step continuity errors : sum local = 9.67077418769e-08, global = -1.21242865735e-09, cumulative = 5.47631147859e-07
GAMG:  Solving for p_rgh, Initial residual = 4.01009618121e-06, Final residual = 5.23399130784e-07, No Iterations 1
time step continuity errors : sum local = 6.9193314665e-08, global = -9.95946938802e-10, cumulative = 5.4663520092e-07
ExecutionTime = 56.4 s  ClockTime = 58 s

fieldMinMax fieldMinMax write:
    min(mag(U)) = 0 in cell 22400 at location (0.54875 0.16 0.00808542) on processor 0
    max(mag(U)) = 4.56976363829 in cell 21593 at location (-0.0423659996009 -0.0321382806763 0.155382354065) on processor 2
    min(alpha.liquid) = 0 in cell 0 at location (0.575158024124 0.118241585281 0.462763989059) on processor 0
    max(alpha.liquid) = 1 in cell 166 at location (0.55625 0.1594255 0.14625) on processor 0
    min(p_rgh) = -5746.44188819 in cell 44945 at location (0.889788405863 0.113782309773 0.0910376993913) on processor 0
    max(p_rgh) = 1988.78579217 in cell 46086 at location (0.891398013621 0.119035691904 0.0432203947699) on processor 0

Courant Number mean: 0.00829542551197 max: 2.07015912558
Interface Courant Number mean: 6.93253109224e-05 max: 2.02203546201
deltaT = 0.000281690835968
Time = 0.00436618328063

PIMPLE: iteration 1
isoAdvection: After conservative bounding: min(alpha) = -5.42101086243e-20, max(alpha) = 1 + 0.0199679224303
Phase-1 volume fraction = 0.326770116804  Min(alpha.liquid) = 0  Max(alpha.liquid) = 1
smoothSolver:  Solving for Ux, Initial residual = 0.000721969600754, Final residual = 1.95962144491e-08, No Iterations 2
smoothSolver:  Solving for Uy, Initial residual = 0.00208624840081, Final residual = 1.22569086112e-07, No Iterations 2
smoothSolver:  Solving for Uz, Initial residual = 0.000282501237167, Final residual = 9.13972156e-07, No Iterations 1
GAMG:  Solving for p_rgh, Initial residual = 0.00106650853853, Final residual = 2.93374234608e-06, No Iterations 2
time step continuity errors : sum local = 3.87289291527e-07, global = -3.43444085578e-09, cumulative = 5.43200760065e-07
GAMG:  Solving for p_rgh, Initial residual = 1.63708226063e-05, Final residual = 7.22246458109e-07, No Iterations 2
time step continuity errors : sum local = 9.59994967647e-08, global = -2.6233196373e-09, cumulative = 5.40577440427e-07
GAMG:  Solving for p_rgh, Initial residual = 3.7354701934e-06, Final residual = 5.24004252219e-07, No Iterations 1
time step continuity errors : sum local = 6.95755136138e-08, global = -2.28611486732e-09, cumulative = 5.3829132556e-07
ExecutionTime = 59.88 s  ClockTime = 62 s

fieldMinMax fieldMinMax write:
    min(mag(U)) = 0 in cell 22400 at location (0.54875 0.16 0.00808542) on processor 0
    max(mag(U)) = 4.77752250734 in cell 21593 at location (-0.0423659996009 -0.0321382806763 0.155382354065) on processor 2
    min(alpha.liquid) = 0 in cell 0 at location (0.575158024124 0.118241585281 0.462763989059) on processor 0
    max(alpha.liquid) = 1 in cell 166 at location (0.55625 0.1594255 0.14625) on processor 0
    min(p_rgh) = -5508.23164802 in cell 44955 at location (0.889787740786 0.105965426094 0.0912784759806) on processor 0
    max(p_rgh) = 1982.11248366 in cell 46086 at location (0.891398013621 0.119035691904 0.0432203947699) on processor 0

Courant Number mean: 0.00829510174874 max: 2.04232831166
Interface Courant Number mean: 6.98296156586e-05 max: 2.00041046642
deltaT = 0.000281690835968
Time = 0.0046478741166

PIMPLE: iteration 1
isoAdvection: After conservative bounding: min(alpha) = -4.33680868994e-19, max(alpha) = 1 + 0.0172301724864
Phase-1 volume fraction = 0.326770109903  Min(alpha.liquid) = 0  Max(alpha.liquid) = 1
smoothSolver:  Solving for Ux, Initial residual = 0.000707133633807, Final residual = 1.82652254927e-08, No Iterations 2
smoothSolver:  Solving for Uy, Initial residual = 0.00202974485519, Final residual = 1.1274818918e-07, No Iterations 2
smoothSolver:  Solving for Uz, Initial residual = 0.000275149979934, Final residual = 8.79175117297e-07, No Iterations 1
GAMG:  Solving for p_rgh, Initial residual = 0.00105989770493, Final residual = 2.88598811979e-06, No Iterations 2
time step continuity errors : sum local = 3.82895287796e-07, global = -4.17758803794e-09, cumulative = 5.34113737522e-07
GAMG:  Solving for p_rgh, Initial residual = 1.6196822012e-05, Final residual = 7.05082801501e-07, No Iterations 2
time step continuity errors : sum local = 9.42532351927e-08, global = -3.25457139119e-09, cumulative = 5.30859166131e-07
GAMG:  Solving for p_rgh, Initial residual = 3.62120989881e-06, Final residual = 5.03140923096e-07, No Iterations 1
time step continuity errors : sum local = 6.72617337905e-08, global = -2.88362453309e-09, cumulative = 5.27975541598e-07
ExecutionTime = 63.31 s  ClockTime = 65 s

fieldMinMax fieldMinMax write:
    min(mag(U)) = 0 in cell 22400 at location (0.54875 0.16 0.00808542) on processor 0
    max(mag(U)) = 4.83790928773 in cell 21593 at location (-0.0423659996009 -0.0321382806763 0.155382354065) on processor 2
    min(alpha.liquid) = 0 in cell 0 at location (0.575158024124 0.118241585281 0.462763989059) on processor 0
    max(alpha.liquid) = 1 in cell 166 at location (0.55625 0.1594255 0.14625) on processor 0
    min(p_rgh) = -5384.08646466 in cell 44955 at location (0.889787740786 0.105965426094 0.0912784759806) on processor 0
    max(p_rgh) = 1973.28517909 in cell 46086 at location (0.891398013621 0.119035691904 0.0432203947699) on processor 0

Courant Number mean: 0.00829490244791 max: 2.04265335267
Interface Courant Number mean: 6.94689589965e-05 max: 1.9897128536
deltaT = 0.000281690835968
Time = 0.00492956495257

PIMPLE: iteration 1
isoAdvection: After conservative bounding: min(alpha) = -8.67361737988e-19, max(alpha) = 1 + 0.0129686590308
Phase-1 volume fraction = 0.326770105141  Min(alpha.liquid) = 0  Max(alpha.liquid) = 1
smoothSolver:  Solving for Ux, Initial residual = 0.00069491625127, Final residual = 1.70266021548e-08, No Iterations 2
smoothSolver:  Solving for Uy, Initial residual = 0.00199424400583, Final residual = 1.07263465461e-07, No Iterations 2
smoothSolver:  Solving for Uz, Initial residual = 0.000268585577371, Final residual = 8.52617344069e-07, No Iterations 1
GAMG:  Solving for p_rgh, Initial residual = 0.00104825537521, Final residual = 2.83373882274e-06, No Iterations 2
time step continuity errors : sum local = 3.78735319385e-07, global = -4.2251592078e-09, cumulative = 5.2375038239e-07
GAMG:  Solving for p_rgh, Initial residual = 1.56540264301e-05, Final residual = 6.74385734233e-07, No Iterations 2
time step continuity errors : sum local = 9.085764572e-08, global = -3.32572067664e-09, cumulative = 5.20424661713e-07
GAMG:  Solving for p_rgh, Initial residual = 3.50234320019e-06, Final residual = 4.79304205502e-07, No Iterations 1
time step continuity errors : sum local = 6.46073013524e-08, global = -2.97119284316e-09, cumulative = 5.1745346887e-07
ExecutionTime = 66.53 s  ClockTime = 68 s

fieldMinMax fieldMinMax write:
    min(mag(U)) = 0 in cell 22400 at location (0.54875 0.16 0.00808542) on processor 0
    max(mag(U)) = 4.82802360071 in cell 21593 at location (-0.0423659996009 -0.0321382806763 0.155382354065) on processor 2
    min(alpha.liquid) = 0 in cell 0 at location (0.575158024124 0.118241585281 0.462763989059) on processor 0
    max(alpha.liquid) = 1 in cell 166 at location (0.55625 0.1594255 0.14625) on processor 0
    min(p_rgh) = -5257.66249497 in cell 44955 at location (0.889787740786 0.105965426094 0.0912784759806) on processor 0
    max(p_rgh) = 1970.00240658 in cell 46086 at location (0.891398013621 0.119035691904 0.0432203947699) on processor 0

Courant Number mean: 0.00829475557855 max: 2.04785426575
Interface Courant Number mean: 6.94587214735e-05 max: 1.93369653869
deltaT = 0.000298260885143
Time = 0.00522782583771

PIMPLE: iteration 1
isoAdvection: After conservative bounding: min(alpha) = -8.67361737988e-19, max(alpha) = 1 + 0.019360717429
Phase-1 volume fraction = 0.326770095108  Min(alpha.liquid) = 0  Max(alpha.liquid) = 1
smoothSolver:  Solving for Ux, Initial residual = 0.000725796199175, Final residual = 2.00717717724e-08, No Iterations 2
smoothSolver:  Solving for Uy, Initial residual = 0.00207553851772, Final residual = 1.25203180213e-07, No Iterations 2
smoothSolver:  Solving for Uz, Initial residual = 0.000278481634013, Final residual = 9.4959947402e-07, No Iterations 1
GAMG:  Solving for p_rgh, Initial residual = 0.00109966905852, Final residual = 2.97416859354e-06, No Iterations 2
time step continuity errors : sum local = 4.48570498475e-07, global = -4.33758084184e-09, cumulative = 5.13115888028e-07
GAMG:  Solving for p_rgh, Initial residual = 1.69067438933e-05, Final residual = 6.80120175602e-07, No Iterations 2
time step continuity errors : sum local = 1.03368923932e-07, global = -3.4738946928e-09, cumulative = 5.09641993336e-07
GAMG:  Solving for p_rgh, Initial residual = 3.64218535305e-06, Final residual = 4.82773161252e-07, No Iterations 1
time step continuity errors : sum local = 7.34139597133e-08, global = -3.09585441987e-09, cumulative = 5.06546138916e-07
ExecutionTime = 69.77 s  ClockTime = 71 s

fieldMinMax fieldMinMax write:
    min(mag(U)) = 0 in cell 22400 at location (0.54875 0.16 0.00808542) on processor 0
    max(mag(U)) = 4.73113147516 in cell 46097 at location (0.032136050473 0.0423703513131 0.155382332257) on processor 2
    min(alpha.liquid) = 0 in cell 0 at location (0.575158024124 0.118241585281 0.462763989059) on processor 0
    max(alpha.liquid) = 1 in cell 166 at location (0.55625 0.1594255 0.14625) on processor 0
    min(p_rgh) = -5031.81697336 in cell 44955 at location (0.889787740786 0.105965426094 0.0912784759806) on processor 0
    max(p_rgh) = 1943.95346322 in cell 46086 at location (0.891398013621 0.119035691904 0.0432203947699) on processor 0

Courant Number mean: 0.00878254950003 max: 2.17012028086
Interface Courant Number mean: 7.38727076709e-05 max: 2.05024435148
deltaT = 0.000298260885143
Time = 0.00552608672286

PIMPLE: iteration 1
isoAdvection: After conservative bounding: min(alpha) = -1.08420217249e-18, max(alpha) = 1 + 0.0247718083856
Phase-1 volume fraction = 0.326770085098  Min(alpha.liquid) = 0  Max(alpha.liquid) = 1
smoothSolver:  Solving for Ux, Initial residual = 0.000710819993574, Final residual = 1.87936388055e-08, No Iterations 2
smoothSolver:  Solving for Uy, Initial residual = 0.00200594338613, Final residual = 1.16288706931e-07, No Iterations 2
smoothSolver:  Solving for Uz, Initial residual = 0.000269091208467, Final residual = 8.95530964345e-07, No Iterations 1
GAMG:  Solving for p_rgh, Initial residual = 0.00108655264791, Final residual = 2.92248525906e-06, No Iterations 2
time step continuity errors : sum local = 4.44403327779e-07, global = -4.04155551709e-09, cumulative = 5.02504583399e-07
GAMG:  Solving for p_rgh, Initial residual = 1.60017718154e-05, Final residual = 6.59513058931e-07, No Iterations 2
time step continuity errors : sum local = 1.00960992026e-07, global = -3.12679177007e-09, cumulative = 4.99377791629e-07
GAMG:  Solving for p_rgh, Initial residual = 3.31538211937e-06, Final residual = 4.70607663874e-07, No Iterations 1
time step continuity errors : sum local = 7.20502422117e-08, global = -2.73692809371e-09, cumulative = 4.96640863535e-07
ExecutionTime = 73.09 s  ClockTime = 75 s

fieldMinMax fieldMinMax write:
    min(mag(U)) = 0 in cell 22400 at location (0.54875 0.16 0.00808542) on processor 0
    max(mag(U)) = 4.53634336722 in cell 46097 at location (0.032136050473 0.0423703513131 0.155382332257) on processor 2
    min(alpha.liquid) = 0 in cell 0 at location (0.575158024124 0.118241585281 0.462763989059) on processor 0
    max(alpha.liquid) = 1 in cell 166 at location (0.55625 0.1594255 0.14625) on processor 0
    min(p_rgh) = -4929.13437493 in cell 44955 at location (0.889787740786 0.105965426094 0.0912784759806) on processor 0
    max(p_rgh) = 1943.8184403 in cell 46086 at location (0.891398013621 0.119035691904 0.0432203947699) on processor 0

Courant Number mean: 0.00878239002462 max: 2.16919203469
Interface Courant Number mean: 7.4143944797e-05 max: 2.14749595129
deltaT = 0.000279619579821
Time = 0.00580570630268

PIMPLE: iteration 1
isoAdvection: After conservative bounding: min(alpha) = -5.69206140555e-19, max(alpha) = 1 + 0.0149033502941
Phase-1 volume fraction = 0.326770082108  Min(alpha.liquid) = 0  Max(alpha.liquid) = 1
smoothSolver:  Solving for Ux, Initial residual = 0.00065572063768, Final residual = 1.34658518285e-08, No Iterations 2
smoothSolver:  Solving for Uy, Initial residual = 0.00184504755826, Final residual = 8.4377558993e-08, No Iterations 2
smoothSolver:  Solving for Uz, Initial residual = 0.000246438624228, Final residual = 7.35761962174e-07, No Iterations 1
GAMG:  Solving for p_rgh, Initial residual = 0.00101081282239, Final residual = 2.68241067257e-06, No Iterations 2
time step continuity errors : sum local = 3.61741350504e-07, global = -2.94529252713e-09, cumulative = 4.93695571008e-07
GAMG:  Solving for p_rgh, Initial residual = 1.51185634159e-05, Final residual = 6.15390269844e-07, No Iterations 2
time step continuity errors : sum local = 8.34927061066e-08, global = -2.15179748291e-09, cumulative = 4.91543773525e-07
GAMG:  Solving for p_rgh, Initial residual = 3.39421136486e-06, Final residual = 4.36322844597e-07, No Iterations 1
time step continuity errors : sum local = 5.91378535441e-08, global = -1.84849443569e-09, cumulative = 4.89695279089e-07
ExecutionTime = 76.35 s  ClockTime = 78 s

fieldMinMax fieldMinMax write:
    min(mag(U)) = 0 in cell 22400 at location (0.54875 0.16 0.00808542) on processor 0
    max(mag(U)) = 4.39807307584 in cell 46097 at location (0.032136050473 0.0423703513131 0.155382332257) on processor 2
    min(alpha.liquid) = 0 in cell 0 at location (0.575158024124 0.118241585281 0.462763989059) on processor 0
    max(alpha.liquid) = 1 in cell 166 at location (0.55625 0.1594255 0.14625) on processor 0
    min(p_rgh) = -4856.40408731 in cell 44955 at location (0.889787740786 0.105965426094 0.0912784759806) on processor 0
    max(p_rgh) = 1978.97818372 in cell 46086 at location (0.891398013621 0.119035691904 0.0432203947699) on processor 0

Courant Number mean: 0.00823339776038 max: 2.03143255779
Interface Courant Number mean: 6.93536191692e-05 max: 1.86920934197
deltaT = 0.000299592406952
Time = 0.00610529870963

PIMPLE: iteration 1
isoAdvection: After conservative bounding: min(alpha) = -8.67361737988e-19, max(alpha) = 1 + 0.0320464721528
Phase-1 volume fraction = 0.326770076419  Min(alpha.liquid) = 0  Max(alpha.liquid) = 1
smoothSolver:  Solving for Ux, Initial residual = 0.000700597416816, Final residual = 1.69173221038e-08, No Iterations 2
smoothSolver:  Solving for Uy, Initial residual = 0.0019892340313, Final residual = 1.0739584843e-07, No Iterations 2
smoothSolver:  Solving for Uz, Initial residual = 0.000263535132371, Final residual = 8.72276420201e-07, No Iterations 1
[...]
smoothSolver:  Solving for Uy, Initial residual = 0.00205374362377, Final residual = 8.06729142508e-09, No Iterations 2
smoothSolver:  Solving for Uz, Initial residual = 0.000349178165317, Final residual = 3.0820874443e-07, No Iterations 1
GAMG:  Solving for p_rgh, Initial residual = 0.0019640995886, Final residual = 4.7683310715e-06, No Iterations 2
time step continuity errors : sum local = 9.84482483614e-07, global = -7.73648724395e-09, cumulative = -2.88920957763e-06
GAMG:  Solving for p_rgh, Initial residual = 7.96156088468e-05, Final residual = 9.36496884759e-07, No Iterations 2
time step continuity errors : sum local = 1.92883618701e-07, global = -6.40790385342e-09, cumulative = -2.89561748148e-06
GAMG:  Solving for p_rgh, Initial residual = 1.29105322409e-05, Final residual = 6.95677259732e-07, No Iterations 1
time step continuity errors : sum local = 1.4352802572e-07, global = -5.66354714647e-09, cumulative = -2.90128102863e-06
ExecutionTime = 1304.85 s  ClockTime = 1349 s

fieldMinMax fieldMinMax write:
    min(mag(U)) = 0 in cell 22400 at location (0.54875 0.16 0.00808542) on processor 0
    max(mag(U)) = 9.06329556162 in cell 75800 at location (-0.0384504899009 0.0367585485821 0.151260036928) on processor 2
    min(alpha.liquid) = 0 in cell 0 at location (0.575158024124 0.118241585281 0.462763989059) on processor 0
    max(alpha.liquid) = 1 in cell 310 at location (0.55625 0.127603774312 0.00037623007825) on processor 0
    min(p_rgh) = -3448.27444534 in cell 87338 at location (0.0457772031852 -0.0194157457365 0.599786393794) on processor 3
    max(p_rgh) = 2341.69467084 in cell 66421 at location (0.989744075623 -0.0744020093119 0.0897026386309) on processor 0

Courant Number mean: 0.0113776091725 max: 2.65296626211
Interface Courant Number mean: 0.000169623535206 max: 1.96702933182
deltaT = 0.000342993741596
Time = 0.115198087618

PIMPLE: iteration 1
isoAdvection: After conservative bounding: min(alpha) = -4.5672016516e-18, max(alpha) = 1 + 0.00763490012009
Phase-1 volume fraction = 0.326768803868  Min(alpha.liquid) = 0  Max(alpha.liquid) = 1
smoothSolver:  Solving for Ux, Initial residual = 0.00124428457296, Final residual = 8.04613192482e-07, No Iterations 1
smoothSolver:  Solving for Uy, Initial residual = 0.0020521626003, Final residual = 8.00172595932e-09, No Iterations 2
smoothSolver:  Solving for Uz, Initial residual = 0.000350230742893, Final residual = 3.09453088021e-07, No Iterations 1
GAMG:  Solving for p_rgh, Initial residual = 0.0019755782454, Final residual = 5.08265827512e-06, No Iterations 2
time step continuity errors : sum local = 1.04936331009e-06, global = -1.3734239907e-08, cumulative = -2.91501526854e-06
GAMG:  Solving for p_rgh, Initial residual = 8.13739414254e-05, Final residual = 4.43812910556e-07, No Iterations 3
time step continuity errors : sum local = 9.14221469118e-08, global = -5.34407627815e-09, cumulative = -2.92035934481e-06
GAMG:  Solving for p_rgh, Initial residual = 1.30177579224e-05, Final residual = 4.59277527489e-07, No Iterations 1
time step continuity errors : sum local = 9.49133081297e-08, global = -4.38216288017e-09, cumulative = -2.9247415077e-06
ExecutionTime = 1307.85 s  ClockTime = 1352 s

fieldMinMax fieldMinMax write:
    min(mag(U)) = 0 in cell 22400 at location (0.54875 0.16 0.00808542) on processor 0
    max(mag(U)) = 8.16531725969 in cell 75800 at location (-0.0384504899009 0.0367585485821 0.151260036928) on processor 2
    min(alpha.liquid) = 0 in cell 0 at location (0.575158024124 0.118241585281 0.462763989059) on processor 0
    max(alpha.liquid) = 1 in cell 258 at location (0.55625 0.156963206692 0.0137463744086) on processor 0
    min(p_rgh) = -2753.85678718 in cell 84703 at location (-0.0166287394252 0.0468596853686 0.598299463609) on processor 3
    max(p_rgh) = 2344.11074943 in cell 66421 at location (0.989744075623 -0.0744020093119 0.0897026386309) on processor 0

Courant Number mean: 0.0113853714123 max: 2.653246779
Interface Courant Number mean: 0.000170207369841 max: 2.62782392676
deltaT = 0.00026677291013
Time = 0.115464860528

PIMPLE: iteration 1
isoAdvection: After conservative bounding: min(alpha) = -4.33680868994e-18, max(alpha) = 1 + 0.0110389232664
Phase-1 volume fraction = 0.32676880075  Min(alpha.liquid) = 0  Max(alpha.liquid) = 1
smoothSolver:  Solving for Ux, Initial residual = 0.00096491624207, Final residual = 4.21549327312e-07, No Iterations 1
smoothSolver:  Solving for Uy, Initial residual = 0.00158890439053, Final residual = 2.99864366335e-09, No Iterations 2
smoothSolver:  Solving for Uz, Initial residual = 0.000270205123046, Final residual = 1.59200982803e-07, No Iterations 1
GAMG:  Solving for p_rgh, Initial residual = 0.00161271992055, Final residual = 3.8278966991e-06, No Iterations 2
time step continuity errors : sum local = 4.83580801456e-07, global = -5.2459588538e-09, cumulative = -2.92998746655e-06
GAMG:  Solving for p_rgh, Initial residual = 6.23639568522e-05, Final residual = 6.8879878952e-07, No Iterations 2
time step continuity errors : sum local = 8.68229777386e-08, global = -4.27646571942e-09, cumulative = -2.93426393227e-06
GAMG:  Solving for p_rgh, Initial residual = 1.01094983424e-05, Final residual = 5.1200739554e-07, No Iterations 1
time step continuity errors : sum local = 6.4588984756e-08, global = -3.75329268792e-09, cumulative = -2.93801722496e-06
ExecutionTime = 1310.91 s  ClockTime = 1355 s

fieldMinMax fieldMinMax write:
    min(mag(U)) = 0 in cell 22400 at location (0.54875 0.16 0.00808542) on processor 0
    max(mag(U)) = 7.77404853368 in cell 75800 at location (-0.0384504899009 0.0367585485821 0.151260036928) on processor 2
    min(alpha.liquid) = 0 in cell 0 at location (0.575158024124 0.118241585281 0.462763989059) on processor 0
    max(alpha.liquid) = 1 in cell 168 at location (0.55625 0.156891 0.14625) on processor 0
    min(p_rgh) = -3213.13516443 in cell 84703 at location (-0.0166287394252 0.0468596853686 0.598299463609) on processor 3
    max(p_rgh) = 2350.5391006 in cell 66421 at location (0.99 -0.0743573639125 0.0897363530524) on processor 0

Courant Number mean: 0.00885951429341 max: 2.06345164696
Interface Courant Number mean: 0.00013270583181 max: 1.51202006461
deltaT = 0.000302342631481
Time = 0.115767203159

PIMPLE: iteration 1
isoAdvection: After conservative bounding: min(alpha) = -3.46944695195e-18, max(alpha) = 1 + 0.0124301190587
Phase-1 volume fraction = 0.326768801288  Min(alpha.liquid) = 0  Max(alpha.liquid) = 1
smoothSolver:  Solving for Ux, Initial residual = 0.00109757025401, Final residual = 5.84966068275e-07, No Iterations 1
smoothSolver:  Solving for Uy, Initial residual = 0.00181602907078, Final residual = 5.97921997269e-09, No Iterations 2
smoothSolver:  Solving for Uz, Initial residual = 0.000308785679975, Final residual = 2.22576196605e-07, No Iterations 1
GAMG:  Solving for p_rgh, Initial residual = 0.00178980779968, Final residual = 4.52992309263e-06, No Iterations 2
time step continuity errors : sum local = 7.30823161871e-07, global = -9.22064202923e-09, cumulative = -2.94723786699e-06
GAMG:  Solving for p_rgh, Initial residual = 7.12778538695e-05, Final residual = 9.50035716413e-07, No Iterations 2
time step continuity errors : sum local = 1.52835390196e-07, global = -8.07263645267e-09, cumulative = -2.95531050344e-06
GAMG:  Solving for p_rgh, Initial residual = 1.16317397886e-05, Final residual = 6.63179556676e-07, No Iterations 1
time step continuity errors : sum local = 1.06789754373e-07, global = -7.24502386778e-09, cumulative = -2.96255552731e-06
ExecutionTime = 1314.06 s  ClockTime = 1359 s

fieldMinMax fieldMinMax write:
    min(mag(U)) = 0 in cell 22400 at location (0.54875 0.16 0.00808542) on processor 0
    max(mag(U)) = 9.2647198275 in cell 51168 at location (0.0533255105972 0.00746993132311 0.148104318254) on processor 2
    min(alpha.liquid) = 0 in cell 0 at location (0.575158024124 0.118241585281 0.462763989059) on processor 0
    max(alpha.liquid) = 1 in cell 167 at location (0.55625 0.1582185 0.14625) on processor 0
    min(p_rgh) = -3200.0746517 in cell 84609 at location (-0.024835929209 0.0430720603581 0.597711240617) on processor 3
    max(p_rgh) = 2348.80022144 in cell 66421 at location (0.989744075623 -0.0744020093119 0.0897026386309) on processor 0

Courant Number mean: 0.0100458423772 max: 2.33863560866
Interface Courant Number mean: 0.000150838503611 max: 2.20500995562
deltaT = 0.000282186456049
Time = 0.116049389615

PIMPLE: iteration 1
isoAdvection: After conservative bounding: min(alpha) = -2.49112389787e-18, max(alpha) = 1 + 0.024127773969
Phase-1 volume fraction = 0.326768790617  Min(alpha.liquid) = 0  Max(alpha.liquid) = 1
smoothSolver:  Solving for Ux, Initial residual = 0.00102558966918, Final residual = 4.98456020176e-07, No Iterations 1
smoothSolver:  Solving for Uy, Initial residual = 0.00168567863439, Final residual = 4.01602524734e-09, No Iterations 2
smoothSolver:  Solving for Uz, Initial residual = 0.000286696398338, Final residual = 1.86085234401e-07, No Iterations 1
GAMG:  Solving for p_rgh, Initial residual = 0.00167868615868, Final residual = 4.17186741212e-06, No Iterations 2
time step continuity errors : sum local = 5.87076577358e-07, global = -1.11786109794e-08, cumulative = -2.97373413829e-06
GAMG:  Solving for p_rgh, Initial residual = 6.69705374908e-05, Final residual = 9.4207946974e-07, No Iterations 2
time step continuity errors : sum local = 1.32331837666e-07, global = -8.71896066856e-09, cumulative = -2.98245309895e-06
GAMG:  Solving for p_rgh, Initial residual = 1.11354364441e-05, Final residual = 7.20496852367e-07, No Iterations 1
time step continuity errors : sum local = 1.01326264807e-07, global = -7.61760334539e-09, cumulative = -2.9900707023e-06
ExecutionTime = 1317.33 s  ClockTime = 1362 s

fieldMinMax fieldMinMax write:
    min(mag(U)) = 0 in cell 22400 at location (0.54875 0.16 0.00808542) on processor 0
    max(mag(U)) = 8.29258378468 in cell 17664 at location (0.0307737148174 -0.0434620256023 0.196875) on processor 2
    min(alpha.liquid) = 0 in cell 0 at location (0.575158024124 0.118241585281 0.462763989059) on processor 0
    max(alpha.liquid) = 1 in cell 311 at location (0.55625 0.119703933642 0.000375046619847) on processor 0
    min(p_rgh) = -3424.70835125 in cell 84608 at location (-0.0248407862615 0.0430737853006 0.598306409123) on processor 3
    max(p_rgh) = 2351.8540073 in cell 66421 at location (0.989744075623 -0.0744020093119 0.0897026386309) on processor 0

Courant Number mean: 0.00938053951072 max: 2.18325990766
Interface Courant Number mean: 0.000141001436653 max: 2.05260132726
deltaT = 0.000282186456049
Time = 0.116331576071

PIMPLE: iteration 1
isoAdvection: After conservative bounding: min(alpha) = -4.56035514063e-08, max(alpha) = 1 + 0.0151734035647
Phase-1 volume fraction = 0.3267688003  Min(alpha.liquid) = 0  Max(alpha.liquid) = 1
smoothSolver:  Solving for Ux, Initial residual = 0.00102615437405, Final residual = 4.93841357515e-07, No Iterations 1
smoothSolver:  Solving for Uy, Initial residual = 0.00169387318678, Final residual = 4.41692332851e-09, No Iterations 2
smoothSolver:  Solving for Uz, Initial residual = 0.000287344708766, Final residual = 1.83681527559e-07, No Iterations 1
GAMG:  Solving for p_rgh, Initial residual = 0.00167361994859, Final residual = 4.107392985e-06, No Iterations 2
time step continuity errors : sum local = 5.77761948296e-07, global = -1.00885812108e-08, cumulative = -3.00015928351e-06
GAMG:  Solving for p_rgh, Initial residual = 6.50072153083e-05, Final residual = 9.04678972229e-07, No Iterations 2
time step continuity errors : sum local = 1.27005951541e-07, global = -7.59370267833e-09, cumulative = -3.00775298619e-06
GAMG:  Solving for p_rgh, Initial residual = 1.07728251496e-05, Final residual = 6.85183055021e-07, No Iterations 1
time step continuity errors : sum local = 9.63571189098e-08, global = -6.51632157634e-09, cumulative = -3.01426930776e-06
ExecutionTime = 1320.38 s  ClockTime = 1365 s

fieldMinMax fieldMinMax write:
    min(mag(U)) = 0 in cell 22400 at location (0.54875 0.16 0.00808542) on processor 0
    max(mag(U)) = 8.39616888149 in cell 17664 at location (0.0307737148174 -0.0434620256023 0.196875) on processor 2
    min(alpha.liquid) = 0 in cell 0 at location (0.575158024124 0.118241585281 0.462763989059) on processor 0
    max(alpha.liquid) = 1 in cell 169 at location (0.55625 0.155431 0.14625) on processor 0
    min(p_rgh) = -3484.4351405 in cell 84608 at location (-0.0248407862615 0.0430737853006 0.598306409123) on processor 3
    max(p_rgh) = 2353.13586944 in cell 66421 at location (0.99 -0.0743573639125 0.0897363530524) on processor 0

Courant Number mean: 0.00938496871772 max: 2.18325370583
Interface Courant Number mean: 0.000140750732352 max: 1.61175413892
deltaT = 0.000305701994053
Time = 0.116637278065

PIMPLE: iteration 1
isoAdvection: After conservative bounding: min(alpha) = -5.70864487286e-06, max(alpha) = 1 + 0.00684794285173
Phase-1 volume fraction = 0.326768806663  Min(alpha.liquid) = 0  Max(alpha.liquid) = 1
smoothSolver:  Solving for Ux, Initial residual = 0.00111269141152, Final residual = 6.06847155963e-07, No Iterations 1
smoothSolver:  Solving for Uy, Initial residual = 0.00183341562263, Final residual = 5.98373997892e-09, No Iterations 2
smoothSolver:  Solving for Uz, Initial residual = 0.000312080543592, Final residual = 2.22188379825e-07, No Iterations 1
GAMG:  Solving for p_rgh, Initial residual = 0.00180132402938, Final residual = 4.55126655939e-06, No Iterations 2
time step continuity errors : sum local = 7.4914219266e-07, global = -9.41500096379e-09, cumulative = -3.02368430873e-06
GAMG:  Solving for p_rgh, Initial residual = 7.53739391055e-05, Final residual = 9.3130463298e-07, No Iterations 2
time step continuity errors : sum local = 1.5299437397e-07, global = -6.74037419046e-09, cumulative = -3.03042468292e-06
GAMG:  Solving for p_rgh, Initial residual = 1.29988540566e-05, Final residual = 7.5982396529e-07, No Iterations 1
time step continuity errors : sum local = 1.24974533771e-07, global = -5.67378281758e-09, cumulative = -3.03609846574e-06
ExecutionTime = 1323.43 s  ClockTime = 1368 s

fieldMinMax fieldMinMax write:
    min(mag(U)) = 0 in cell 22400 at location (0.54875 0.16 0.00808542) on processor 0
    max(mag(U)) = 8.04140873061 in cell 17664 at location (0.0307737148174 -0.0434620256023 0.196875) on processor 2
    min(alpha.liquid) = 0 in cell 0 at location (0.575158024124 0.118241585281 0.462763989059) on processor 0
    max(alpha.liquid) = 1 in cell 440 at location (0.55625 -0.0688166502091 0.000376352247685) on processor 0
    min(p_rgh) = -4024.50003744 in cell 84599 at location (-0.0248450973984 0.0430752966544 0.598847543672) on processor 3
    max(p_rgh) = 2352.67065046 in cell 66421 at location (0.989744075623 -0.0744020093119 0.0897026386309) on processor 0

Courant Number mean: 0.0101727910651 max: 2.3658016077
Interface Courant Number mean: 0.000152326243075 max: 1.74167969747
deltaT = 0.000336272193458
Time = 0.116973550259

PIMPLE: iteration 1
isoAdvection: After conservative bounding: min(alpha) = -9.36592205746e-07, max(alpha) = 1 + 0.0251482230489
Phase-1 volume fraction = 0.326768795611  Min(alpha.liquid) = 0  Max(alpha.liquid) = 1
smoothSolver:  Solving for Ux, Initial residual = 0.00122893598465, Final residual = 7.89698436715e-07, No Iterations 1
smoothSolver:  Solving for Uy, Initial residual = 0.00202152474638, Final residual = 9.25314456607e-09, No Iterations 2
smoothSolver:  Solving for Uz, Initial residual = 0.000344608186269, Final residual = 2.84883129294e-07, No Iterations 1
GAMG:  Solving for p_rgh, Initial residual = 0.0019873792622, Final residual = 4.96721931354e-06, No Iterations 2
time step continuity errors : sum local = 9.85502901981e-07, global = -1.03970306943e-08, cumulative = -3.04649549643e-06
GAMG:  Solving for p_rgh, Initial residual = 8.06183195535e-05, Final residual = 9.69830119035e-07, No Iterations 2
time step continuity errors : sum local = 1.92057855327e-07, global = -7.65259759226e-09, cumulative = -3.05414809402e-06
GAMG:  Solving for p_rgh, Initial residual = 1.29745845839e-05, Final residual = 7.22644084225e-07, No Iterations 1
time step continuity errors : sum local = 1.43453008419e-07, global = -6.46187935704e-09, cumulative = -3.06060997338e-06
ExecutionTime = 1326.46 s  ClockTime = 1371 s

fieldMinMax fieldMinMax write:
    min(mag(U)) = 0 in cell 22400 at location (0.54875 0.16 0.00808542) on processor 0
    max(mag(U)) = 7.11342577298 in cell 57260 at location (0.0495337958234 0.0194559382719 0.178113471635) on processor 2
    min(alpha.liquid) = 0 in cell 0 at location (0.575158024124 0.118241585281 0.462763989059) on processor 0
    max(alpha.liquid) = 1 in cell 258 at location (0.55625 0.156963206692 0.0137463744086) on processor 0
    min(p_rgh) = -3724.68758968 in cell 84598 at location (-0.0248490303383 0.0430767608235 0.599339420112) on processor 3
    max(p_rgh) = 2351.89237461 in cell 66421 at location (0.989744075623 -0.0744020093119 0.0897026386309) on processor 0

Courant Number mean: 0.01119690147 max: 2.60095075437
Interface Courant Number mean: 0.000167086201981 max: 1.83998733697
deltaT = 0.00037830621764
Time = 0.117351856477

PIMPLE: iteration 1
isoAdvection: After conservative bounding: min(alpha) = -5.09575021068e-18, max(alpha) = 1 + 0.136410642033
Phase-1 volume fraction = 0.32676878589  Min(alpha.liquid) = 0  Max(alpha.liquid) = 1
smoothSolver:  Solving for Ux, Initial residual = 0.00138635234307, Final residual = 4.52710227088e-09, No Iterations 2
smoothSolver:  Solving for Uy, Initial residual = 0.00228066901735, Final residual = 1.69373242639e-08, No Iterations 2
smoothSolver:  Solving for Uz, Initial residual = 0.00039157835344, Final residual = 3.94436467391e-07, No Iterations 1
GAMG:  Solving for p_rgh, Initial residual = 0.00218452301536, Final residual = 5.46485284516e-06, No Iterations 2
time step continuity errors : sum local = 1.36671249875e-06, global = -1.46560358663e-08, cumulative = -3.07526600925e-06
GAMG:  Solving for p_rgh, Initial residual = 9.41556051531e-05, Final residual = 5.21645578492e-07, No Iterations 3
time step continuity errors : sum local = 1.30080338457e-07, global = -6.49478587871e-09, cumulative = -3.08176079513e-06
GAMG:  Solving for p_rgh, Initial residual = 1.5048210949e-05, Final residual = 5.79576733297e-07, No Iterations 1
time step continuity errors : sum local = 1.45107756318e-07, global = -4.98187629475e-09, cumulative = -3.08674267142e-06
ExecutionTime = 1329.45 s  ClockTime = 1374 s

fieldMinMax fieldMinMax write:
    min(mag(U)) = 0 in cell 22400 at location (0.54875 0.16 0.00808542) on processor 0
    max(mag(U)) = 11.6529080783 in cell 51157 at location (0.0526755271008 0.00737650821899 0.155175448885) on processor 2
    min(alpha.liquid) = 0 in cell 0 at location (0.575158024124 0.118241585281 0.462763989059) on processor 0
    max(alpha.liquid) = 1 in cell 291 at location (0.55625 0.149971501937 0.000406354826599) on processor 0
    min(p_rgh) = -4024.81251656 in cell 84684 at location (-0.0166347158942 0.0468637287754 0.599785963158) on processor 3
    max(p_rgh) = 2350.8398077 in cell 66421 at location (0.989744075623 -0.0744020093119 0.0897026386309) on processor 0

Courant Number mean: 0.0126054692276 max: 2.92539755153
Interface Courant Number mean: 0.000189290177281 max: 2.0641643966
deltaT = 0.00037830621764
Time = 0.117730162694

PIMPLE: iteration 1
isoAdvection: After conservative bounding: min(alpha) = -6.93889390391e-18, max(alpha) = 1 + 0.0205839027256
Phase-1 volume fraction = 0.326768785921  Min(alpha.liquid) = 0  Max(alpha.liquid) = 1
smoothSolver:  Solving for Ux, Initial residual = 0.00138860066767, Final residual = 5.58307758428e-09, No Iterations 2
smoothSolver:  Solving for Uy, Initial residual = 0.00230090883109, Final residual = 2.11437973375e-08, No Iterations 2
